REMARK  Name = 
REMARK  1 active torsions:
REMARK  status: ('A' for Active; 'I' for Inactive)
REMARK    1  A    between atoms: N_14  and  C_18
REMARK                            x       y       z     vdW  Elec       q    Type
REMARK                         _______ _______ _______ _____ _____    ______ ____
ROOT
ATOM      1  C   UNL     1      -0.227   2.960   0.570  0.00  0.00    -0.007 C 
ATOM      2  C   UNL     1      -0.543  -2.066  -0.255  0.00  0.00    -0.032 C 
ATOM      3  C   UNL     1       1.528   3.215  -1.300  0.00  0.00    +0.001 C 
ATOM      4  C   UNL     1       1.156   1.754  -1.723  0.00  0.00    +0.008 C 
ATOM      5  C   UNL     1       0.666  -2.712  -2.426  0.00  0.00    +0.007 C 
ATOM      7  N   UNL     1       1.342  -0.716  -1.113  0.00  0.00    -0.174 N 
ATOM      8  C   UNL     1      -0.079  -0.692  -0.691  0.00  0.00    +0.137 C 
ATOM     11  C   UNL     1       0.368   3.897  -0.563  0.00  0.00    -0.001 C 
ATOM     12  C   UNL     1       0.277  -3.145  -0.989  0.00  0.00    -0.007 C 
ATOM     13  C   UNL     1       0.613   1.705   0.666  0.00  0.00    -0.032 C 
ATOM     16  C   UNL     1       1.488  -1.397  -2.419  0.00  0.00    +0.030 C 
ATOM     17  C   UNL     1       1.934   0.640  -1.080  0.00  0.00    +0.030 C 
ATOM     18  C   UNL     1      -0.273   0.476   0.316  0.00  0.00    +0.137 C 
ENDROOT
BRANCH  18  14
ATOM      6  C   UNL     1      -2.795  -1.362   2.476  0.00  0.00    +0.008 C 
ATOM      9  C   UNL     1      -1.549  -1.231   3.433  0.00  0.00    +0.008 C 
ATOM     10  C   UNL     1      -0.401  -0.750   2.478  0.00  0.00    +0.030 C 
ATOM     14  N   UNL     1      -1.097   0.045   1.448  0.00  0.00    -0.174 N 
ATOM     15  C   UNL     1      -2.408  -0.621   1.173  0.00  0.00    +0.030 C 
ENDBRANCH  18  14
TORSDOF 1
