REMARK  Name = 
REMARK  2 active torsions:
REMARK  status: ('A' for Active; 'I' for Inactive)
REMARK    1  A    between atoms: C_4  and  C_11
REMARK    2  A    between atoms: C_10  and  C_16
REMARK                            x       y       z     vdW  Elec       q    Type
REMARK                         _______ _______ _______ _____ _____    ______ ____
ROOT
ATOM      1  C   UNL     1      -0.497  -0.158  -1.653  0.00  0.00    -0.050 C 
ATOM      5  C   UNL     1      -0.198   1.295  -1.239  0.00  0.00    -0.050 C 
ATOM     10  C   UNL     1       0.403  -1.102  -0.821  0.00  0.00    -0.038 C 
ATOM     11  C   UNL     1      -0.592   1.509   0.211  0.00  0.00    -0.038 C 
ATOM     13  C   UNL     1      -0.771   0.193   0.971  0.00  0.00    -0.050 C 
ATOM     17  C   UNL     1       0.403  -0.740   0.681  0.00  0.00    -0.050 C 
ATOM     19  H   UNL     1       0.000   0.000   0.000  0.00  0.00    +0.027 HD
ATOM     20  H   UNL     1       0.000   0.000   0.000  0.00  0.00    +0.027 HD
ATOM     26  H   UNL     1       0.000   0.000   0.000  0.00  0.00    +0.027 HD
ATOM     27  H   UNL     1       0.000   0.000   0.000  0.00  0.00    +0.027 HD
ATOM     36  H   UNL     1       0.000   0.000   0.000  0.00  0.00    +0.030 HD
ATOM     37  H   UNL     1       0.000   0.000   0.000  0.00  0.00    +0.030 HD
ATOM     40  H   UNL     1       0.000   0.000   0.000  0.00  0.00    +0.027 HD
ATOM     41  H   UNL     1       0.000   0.000   0.000  0.00  0.00    +0.027 HD
ATOM     47  H   UNL     1       0.000   0.000   0.000  0.00  0.00    +0.027 HD
ATOM     48  H   UNL     1       0.000   0.000   0.000  0.00  0.00    +0.027 HD
ENDROOT
BRANCH  11   4
ATOM      2  C   UNL     1       1.886   4.121   2.383  0.00  0.00    -0.053 C 
ATOM      4  C   UNL     1       0.382   2.443   0.984  0.00  0.00    -0.038 C 
ATOM      6  C   UNL     1       1.925   4.403   0.866  0.00  0.00    -0.053 C 
ATOM      9  C   UNL     1       0.452   4.018   2.950  0.00  0.00    -0.053 C 
ATOM     14  C   UNL     1       0.861   3.579   0.084  0.00  0.00    -0.050 C 
ATOM     18  C   UNL     1      -0.375   2.923   2.231  0.00  0.00    -0.050 C 
ATOM     21  H   UNL     1       0.000   0.000   0.000  0.00  0.00    +0.027 HD
ATOM     22  H   UNL     1       0.000   0.000   0.000  0.00  0.00    +0.027 HD
ATOM     25  H   UNL     1       0.000   0.000   0.000  0.00  0.00    +0.030 HD
ATOM     28  H   UNL     1       0.000   0.000   0.000  0.00  0.00    +0.027 HD
ATOM     29  H   UNL     1       0.000   0.000   0.000  0.00  0.00    +0.027 HD
ATOM     34  H   UNL     1       0.000   0.000   0.000  0.00  0.00    +0.027 HD
ATOM     35  H   UNL     1       0.000   0.000   0.000  0.00  0.00    +0.027 HD
ATOM     42  H   UNL     1       0.000   0.000   0.000  0.00  0.00    +0.027 HD
ATOM     43  H   UNL     1       0.000   0.000   0.000  0.00  0.00    +0.027 HD
ATOM     49  H   UNL     1       0.000   0.000   0.000  0.00  0.00    +0.027 HD
ATOM     50  H   UNL     1       0.000   0.000   0.000  0.00  0.00    +0.027 HD
ENDBRANCH  11   4
BRANCH  10  16
ATOM      3  C   UNL     1      -1.399  -4.926  -1.753  0.00  0.00    -0.053 C 
ATOM      7  C   UNL     1       0.638  -3.416  -1.986  0.00  0.00    -0.050 C 
ATOM      8  C   UNL     1      -2.124  -3.727  -1.102  0.00  0.00    -0.053 C 
ATOM     12  C   UNL     1      -1.132  -3.030  -0.134  0.00  0.00    -0.050 C 
ATOM     15  C   UNL     1       0.147  -4.866  -1.701  0.00  0.00    -0.053 C 
ATOM     16  C   UNL     1      -0.009  -2.519  -0.972  0.00  0.00    -0.038 C 
ATOM     23  H   UNL     1       0.000   0.000   0.000  0.00  0.00    +0.027 HD
ATOM     24  H   UNL     1       0.000   0.000   0.000  0.00  0.00    +0.027 HD
ATOM     30  H   UNL     1       0.000   0.000   0.000  0.00  0.00    +0.027 HD
ATOM     31  H   UNL     1       0.000   0.000   0.000  0.00  0.00    +0.027 HD
ATOM     32  H   UNL     1       0.000   0.000   0.000  0.00  0.00    +0.027 HD
ATOM     33  H   UNL     1       0.000   0.000   0.000  0.00  0.00    +0.027 HD
ATOM     38  H   UNL     1       0.000   0.000   0.000  0.00  0.00    +0.027 HD
ATOM     39  H   UNL     1       0.000   0.000   0.000  0.00  0.00    +0.027 HD
ATOM     44  H   UNL     1       0.000   0.000   0.000  0.00  0.00    +0.027 HD
ATOM     45  H   UNL     1       0.000   0.000   0.000  0.00  0.00    +0.027 HD
ATOM     46  H   UNL     1       0.000   0.000   0.000  0.00  0.00    +0.030 HD
ENDBRANCH  10  16
TORSDOF 2
