REMARK  Name = 
REMARK  1 active torsions:
REMARK  status: ('A' for Active; 'I' for Inactive)
REMARK    1  A    between atoms: C_8  and  C_11
REMARK                            x       y       z     vdW  Elec       q    Type
REMARK                         _______ _______ _______ _____ _____    ______ ____
ROOT
ATOM      2  C   UNL     1       1.227  -1.385   0.025  0.00  0.00    -0.042 C 
ATOM      3  C   UNL     1       0.954   0.166  -1.892  0.00  0.00    -0.053 C 
ATOM      4  C   UNL     1      -0.651   0.193  -1.785  0.00  0.00    -0.053 C 
ATOM      9  C   UNL     1       1.201  -1.343  -1.555  0.00  0.00    -0.052 C 
ATOM     10  C   UNL     1      -1.077  -0.030  -0.383  0.00  0.00    -0.052 C 
ATOM     11  C   UNL     1      -0.072  -1.918   0.782  0.00  0.00    +0.036 C 
ATOM     15  C   UNL     1      -1.283  -1.533  -0.159  0.00  0.00    -0.042 C 
ATOM     18  H   UNL     1       0.000   0.000   0.000  0.00  0.00    +0.027 HD
ATOM     19  H   UNL     1       0.000   0.000   0.000  0.00  0.00    +0.027 HD
ATOM     20  H   UNL     1       0.000   0.000   0.000  0.00  0.00    +0.027 HD
ATOM     21  H   UNL     1       0.000   0.000   0.000  0.00  0.00    +0.027 HD
ATOM     22  H   UNL     1       0.000   0.000   0.000  0.00  0.00    +0.027 HD
ATOM     23  H   UNL     1       0.000   0.000   0.000  0.00  0.00    +0.027 HD
ATOM     28  H   UNL     1       0.000   0.000   0.000  0.00  0.00    +0.027 HD
ATOM     29  H   UNL     1       0.000   0.000   0.000  0.00  0.00    +0.027 HD
ATOM     30  H   UNL     1       0.000   0.000   0.000  0.00  0.00    +0.027 HD
ATOM     31  H   UNL     1       0.000   0.000   0.000  0.00  0.00    +0.027 HD
ATOM     32  H   UNL     1       0.000   0.000   0.000  0.00  0.00    +0.039 HD
ATOM     37  H   UNL     1       0.000   0.000   0.000  0.00  0.00    +0.027 HD
ATOM     38  H   UNL     1       0.000   0.000   0.000  0.00  0.00    +0.027 HD
ENDROOT
BRANCH  11   8
ATOM      1  C   UNL     1       1.304  -1.198   3.198  0.00  0.00    +0.015 C 
ATOM      5  O   UNL     1      -1.861  -2.624   2.180  0.00  0.00    -0.275 OA
ATOM      6  C   UNL     1       1.274  -1.060   5.680  0.00  0.00    -0.050 C 
ATOM      7  C   UNL     1      -0.990  -1.250   4.436  0.00  0.00    +0.015 C 
ATOM      8  C   UNL     1      -0.757  -2.070   2.156  0.00  0.00    +0.219 C 
ATOM     12  C   UNL     1      -0.214  -1.503   5.761  0.00  0.00    -0.037 C 
ATOM     13  N   UNL     1      -0.137  -1.546   3.255  0.00  0.00    -0.301 N 
ATOM     14  C   UNL     1       2.002  -1.710   4.481  0.00  0.00    -0.037 C 
ATOM     16  H   UNL     1       0.000   0.000   0.000  0.00  0.00    +0.046 HD
ATOM     17  H   UNL     1       0.000   0.000   0.000  0.00  0.00    +0.046 HD
ATOM     24  H   UNL     1       0.000   0.000   0.000  0.00  0.00    +0.027 HD
ATOM     25  H   UNL     1       0.000   0.000   0.000  0.00  0.00    +0.027 HD
ATOM     26  H   UNL     1       0.000   0.000   0.000  0.00  0.00    +0.046 HD
ATOM     27  H   UNL     1       0.000   0.000   0.000  0.00  0.00    +0.046 HD
ATOM     33  H   UNL     1       0.000   0.000   0.000  0.00  0.00    +0.028 HD
ATOM     34  H   UNL     1       0.000   0.000   0.000  0.00  0.00    +0.028 HD
ATOM     35  H   UNL     1       0.000   0.000   0.000  0.00  0.00    +0.028 HD
ATOM     36  H   UNL     1       0.000   0.000   0.000  0.00  0.00    +0.028 HD
ENDBRANCH  11   8
TORSDOF 1
