REMARK  Name = 
REMARK  4 active torsions:
REMARK  status: ('A' for Active; 'I' for Inactive)
REMARK    1  A    between atoms: C_1  and  C_19
REMARK    2  A    between atoms: C_3  and  C_5
REMARK    3  A    between atoms: C_3  and  N_8
REMARK    4  A    between atoms: C_5  and  C_9
REMARK                            x       y       z     vdW  Elec       q    Type
REMARK                         _______ _______ _______ _____ _____    ______ ____
ROOT
ATOM      5  C   UNL     1      -0.900  -0.298  -0.776  0.00  0.00    +0.154 C 
ATOM      6  C   UNL     1      -1.826   0.929  -0.947  0.00  0.00    -0.061 C 
ATOM     14  C   UNL     1      -2.637   0.698  -2.236  0.00  0.00    -0.013 C 
ATOM     15  C   UNL     1      -2.248  -0.688  -2.838  0.00  0.00    -0.013 C 
ATOM     18  C   UNL     1      -0.993  -1.171  -2.048  0.00  0.00    -0.061 C 
ENDROOT
BRANCH   5   9
ATOM      1  C   UNL     1       3.576   0.345   0.875  0.00  0.00    +0.057 C 
ATOM      4  C   UNL     1       1.437  -0.849   0.056  0.00  0.00    +0.013 C 
ATOM      7  S   UNL     1       2.918   0.435  -1.849  0.00  0.00    -0.044 S 
ATOM      9  C   UNL     1       0.546   0.215  -0.603  0.00  0.00    +0.043 C 
ATOM     11  C   UNL     1       1.101   0.828  -1.900  0.00  0.00    -0.068 C 
ATOM     16  C   UNL     1       2.939  -0.517  -0.283  0.00  0.00    +0.045 C 
BRANCH   1  19
ATOM      2  C   UNL     1       5.500   0.976  -1.028  0.00  0.00    -0.009 C 
ATOM     19  C   UNL     1       4.829   1.155   0.369  0.00  0.00    -0.050 C 
ENDBRANCH   1  19
ENDBRANCH   5   9
BRANCH   5   3
ATOM      3  C   UNL     1      -1.361  -1.167   0.429  0.00  0.00    +0.143 C 
BRANCH   3   8
ATOM      8  N   UNL     1      -1.774  -0.434   1.624  0.00  0.00    -0.204 N 
ATOM     10  C   UNL     1      -2.172  -1.382   2.708  0.00  0.00    +0.025 C 
ATOM     12  C   UNL     1      -2.782  -0.474   3.813  0.00  0.00    +0.008 C 
ATOM     13  C   UNL     1      -2.714   0.712   1.631  0.00  0.00    +0.025 C 
ATOM     17  C   UNL     1      -3.438   0.689   3.004  0.00  0.00    +0.008 C 
ENDBRANCH   3   8
ENDBRANCH   5   3
TORSDOF 4
