REMARK  Name = 
REMARK  2 active torsions:
REMARK  status: ('A' for Active; 'I' for Inactive)
REMARK    1  A    between atoms: C_1  and  C_11
REMARK    2  A    between atoms: N_14  and  C_21
REMARK                            x       y       z     vdW  Elec       q    Type
REMARK                         _______ _______ _______ _____ _____    ______ ____
ROOT
ATOM      1  C   UNL     1      -0.093  -1.009  -0.693  0.00  0.00    +0.062 C 
ATOM      2  C   UNL     1       2.532  -0.015  -0.195  0.00  0.00    +0.209 C 
ATOM      3  C   UNL     1       3.703  -0.565   0.645  0.00  0.00    -0.012 C 
ATOM      7  C   UNL     1       1.617   0.687   0.852  0.00  0.00    +0.140 C 
ATOM      8  C   UNL     1       1.130  -1.955  -0.727  0.00  0.00    +0.180 C 
ATOM     10  C   UNL     1       4.874   1.097   2.029  0.00  0.00    -0.001 C 
ATOM     14  N   UNL     1       0.468   1.272   0.096  0.00  0.00    -0.251 N 
ATOM     15  C   UNL     1       3.395   1.171   2.547  0.00  0.00    -0.007 C 
ATOM     17  C   UNL     1       2.392   1.837   1.575  0.00  0.00    -0.032 C 
ATOM     20  C   UNL     1       0.101   0.420  -1.107  0.00  0.00    +0.130 C 
ATOM     22  C   UNL     1       4.883   0.396   0.598  0.00  0.00    -0.006 C 
ATOM     24  O   UNL     1       2.212  -1.095  -1.094  0.00  0.00    -0.441 OA
ENDROOT
BRANCH   1  11
ATOM      4  C   UNL     1      -3.366  -2.992  -2.381  0.00  0.00    +0.010 C 
ATOM     11  C   UNL     1      -1.189  -1.714  -1.552  0.00  0.00    +0.134 C 
ATOM     13  C   UNL     1      -2.437  -3.875  -1.487  0.00  0.00    -0.006 C 
ATOM     16  N   UNL     1      -2.406  -0.977  -1.227  0.00  0.00    -0.187 NA
ATOM     19  C   UNL     1      -1.035  -3.246  -1.420  0.00  0.00    -0.031 C 
ATOM     23  C   UNL     1      -3.639  -1.667  -1.627  0.00  0.00    +0.050 C 
ENDBRANCH   1  11
BRANCH  14  21
ATOM      5  C   UNL     1      -3.123   1.319   0.160  0.00  0.00    +0.051 C 
ATOM      6  C   UNL     1      -1.379   3.133   0.670  0.00  0.00    -0.016 C 
ATOM      9  C   UNL     1      -2.535   3.239   1.682  0.00  0.00    -0.005 C 
ATOM     12  C   UNL     1      -3.562   2.099   1.423  0.00  0.00    +0.010 C 
ATOM     18  N   UNL     1      -1.788   0.726   0.378  0.00  0.00    -0.171 NA
ATOM     21  C   UNL     1      -0.755   1.715   0.856  0.00  0.00    +0.190 C 
ENDBRANCH  14  21
TORSDOF 2
