REMARK  Name = 
REMARK  2 active torsions:
REMARK  status: ('A' for Active; 'I' for Inactive)
REMARK    1  A    between atoms: C_1  and  C_10
REMARK    2  A    between atoms: N_7  and  C_10
REMARK                            x       y       z     vdW  Elec       q    Type
REMARK                         _______ _______ _______ _____ _____    ______ ____
ROOT
ATOM      2  C   UNL     1      -0.013  -2.368  -1.411  0.00  0.00    +0.074 C 
ATOM      5  C   UNL     1      -1.055  -4.251  -0.305  0.00  0.00    +0.072 C 
ATOM      6  C   UNL     1      -0.290  -3.407  -2.546  0.00  0.00    +0.019 C 
ATOM      7  N   UNL     1       0.021  -0.013  -0.632  0.00  0.00    -0.270 NA
ATOM      8  C   UNL     1      -0.964  -4.636  -1.821  0.00  0.00    +0.019 C 
ATOM     12  N   UNL     1      -0.934  -2.720  -0.296  0.00  0.00    -0.271 NA
ATOM     13  C   UNL     1      -1.016  -0.329   0.386  0.00  0.00    +0.090 C 
ATOM     14  C   UNL     1      -0.767  -1.778   0.855  0.00  0.00    +0.090 C 
ATOM     15  C   UNL     1      -0.172  -0.895  -1.807  0.00  0.00    +0.088 C 
ENDROOT
BRANCH   7  10
ATOM     10  C   UNL     1       0.147   1.431  -0.858  0.00  0.00    +0.072 C 
BRANCH  10   1
ATOM      1  C   UNL     1       0.702   2.115   0.429  0.00  0.00    +0.016 C 
ATOM      3  C   UNL     1       1.549   3.334   0.090  0.00  0.00    +0.001 C 
ATOM      4  C   UNL     1       2.118   3.941   1.403  0.00  0.00    +0.000 C 
ATOM      9  C   UNL     1      -0.384   2.269   1.440  0.00  0.00    +0.001 C 
ATOM     11  C   UNL     1       0.116   3.020   2.727  0.00  0.00    +0.000 C 
ATOM     16  C   UNL     1       0.941   4.287   2.348  0.00  0.00    +0.000 C 
ENDBRANCH  10   1
ENDBRANCH   7  10
TORSDOF 2
