REMARK  Name = 
REMARK  2 active torsions:
REMARK  status: ('A' for Active; 'I' for Inactive)
REMARK    1  A    between atoms: C_7  and  C_11
REMARK    2  A    between atoms: C_8  and  C_11
REMARK                            x       y       z     vdW  Elec       q    Type
REMARK                         _______ _______ _______ _____ _____    ______ ____
ROOT
ATOM     11  C   UNL     1       0.441  -0.137  -2.014  0.00  0.00    +0.139 C 
ATOM     14  O   UNL     1      -0.238  -0.967  -2.654  0.00  0.00    -0.297 OA
ENDROOT
BRANCH  11   7
ATOM      1  C   UNL     1       3.477  -2.157   0.481  0.00  0.00    -0.053 C 
ATOM      2  C   UNL     1       2.019  -2.079   1.001  0.00  0.00    -0.052 C 
ATOM      3  C   UNL     1       0.940  -1.836  -0.072  0.00  0.00    -0.044 C 
ATOM      7  C   UNL     1       1.366  -0.619  -0.887  0.00  0.00    +0.018 C 
ATOM     12  C   UNL     1       2.721  -0.857  -1.536  0.00  0.00    -0.044 C 
ATOM     13  C   UNL     1       3.784  -0.952  -0.442  0.00  0.00    -0.052 C 
ATOM     15  H   UNL     1       0.000   0.000   0.000  0.00  0.00    +0.027 HD
ATOM     16  H   UNL     1       0.000   0.000   0.000  0.00  0.00    +0.027 HD
ATOM     17  H   UNL     1       0.000   0.000   0.000  0.00  0.00    +0.027 HD
ATOM     18  H   UNL     1       0.000   0.000   0.000  0.00  0.00    +0.027 HD
ATOM     19  H   UNL     1       0.000   0.000   0.000  0.00  0.00    +0.027 HD
ATOM     20  H   UNL     1       0.000   0.000   0.000  0.00  0.00    +0.027 HD
ATOM     27  H   UNL     1       0.000   0.000   0.000  0.00  0.00    +0.038 HD
ATOM     33  H   UNL     1       0.000   0.000   0.000  0.00  0.00    +0.027 HD
ATOM     34  H   UNL     1       0.000   0.000   0.000  0.00  0.00    +0.027 HD
ATOM     35  H   UNL     1       0.000   0.000   0.000  0.00  0.00    +0.027 HD
ATOM     36  H   UNL     1       0.000   0.000   0.000  0.00  0.00    +0.027 HD
ENDBRANCH  11   7
BRANCH  11   8
ATOM      4  C   UNL     1       1.046   3.839  -3.576  0.00  0.00    -0.053 C 
ATOM      5  C   UNL     1      -0.275   1.657  -3.619  0.00  0.00    -0.044 C 
ATOM      6  C   UNL     1       1.795   1.916  -2.150  0.00  0.00    -0.044 C 
ATOM      8  C   UNL     1       0.382   1.372  -2.271  0.00  0.00    +0.018 C 
ATOM      9  C   UNL     1       1.715   3.448  -2.231  0.00  0.00    -0.052 C 
ATOM     10  C   UNL     1      -0.344   3.191  -3.751  0.00  0.00    -0.052 C 
ATOM     21  H   UNL     1       0.000   0.000   0.000  0.00  0.00    +0.027 HD
ATOM     22  H   UNL     1       0.000   0.000   0.000  0.00  0.00    +0.027 HD
ATOM     23  H   UNL     1       0.000   0.000   0.000  0.00  0.00    +0.027 HD
ATOM     24  H   UNL     1       0.000   0.000   0.000  0.00  0.00    +0.027 HD
ATOM     25  H   UNL     1       0.000   0.000   0.000  0.00  0.00    +0.027 HD
ATOM     26  H   UNL     1       0.000   0.000   0.000  0.00  0.00    +0.027 HD
ATOM     28  H   UNL     1       0.000   0.000   0.000  0.00  0.00    +0.038 HD
ATOM     29  H   UNL     1       0.000   0.000   0.000  0.00  0.00    +0.027 HD
ATOM     30  H   UNL     1       0.000   0.000   0.000  0.00  0.00    +0.027 HD
ATOM     31  H   UNL     1       0.000   0.000   0.000  0.00  0.00    +0.027 HD
ATOM     32  H   UNL     1       0.000   0.000   0.000  0.00  0.00    +0.027 HD
ENDBRANCH  11   8
TORSDOF 2
