REMARK  Name = 
REMARK  5 active torsions:
REMARK  status: ('A' for Active; 'I' for Inactive)
REMARK    1  A    between atoms: C_2  and  C_13
REMARK    2  A    between atoms: C_5  and  C_9
REMARK    3  A    between atoms: C_5  and  N_14
REMARK    4  A    between atoms: C_7  and  C_21
REMARK    5  A    between atoms: C_13  and  C_21
REMARK                            x       y       z     vdW  Elec       q    Type
REMARK                         _______ _______ _______ _____ _____    ______ ____
ROOT
ATOM      1  C   UNL     1       3.539  -1.619   1.269  0.00  0.00    +0.121 C 
ATOM      2  C   UNL     1      -0.202  -0.987   0.844  0.00  0.00    +0.063 C 
ATOM      6  N   UNL     1       1.232  -1.157   0.740  0.00  0.00    -0.237 NA
ATOM      8  C   UNL     1       0.035  -1.137   4.541  0.00  0.00    +0.032 C 
ATOM     10  O   UNL     1       1.962  -0.740   2.988  0.00  0.00    -0.342 OA
ATOM     14  N   UNL     1       3.411  -0.907  -0.074  0.00  0.00    -0.253 NA
ATOM     17  C   UNL     1       2.077  -0.076   0.110  0.00  0.00    +0.151 C 
ATOM     18  C   UNL     1       0.538  -0.392   3.249  0.00  0.00    +0.118 C 
ATOM     19  C   UNL     1       2.078  -1.660   1.845  0.00  0.00    +0.193 C 
ATOM     20  C   UNL     1      -0.648  -0.515   2.252  0.00  0.00    +0.046 C 
ENDROOT
BRANCH  14   5
ATOM      5  C   UNL     1       4.737  -1.056  -0.826  0.00  0.00    +0.109 C 
BRANCH   5   9
ATOM      9  C   UNL     1       5.514   0.309  -0.736  0.00  0.00    +0.199 C 
ATOM     15  O   UNL     1       5.153   0.993   0.500  0.00  0.00    -0.219 OA
ENDBRANCH   5   9
ENDBRANCH  14   5
BRANCH   2  13
ATOM     13  C   UNL     1      -0.660   0.154  -0.147  0.00  0.00    +0.016 C 
BRANCH  13  21
ATOM     21  C   UNL     1      -1.913  -0.342  -0.874  0.00  0.00    +0.001 C 
BRANCH  21   7
ATOM      3  C   UNL     1      -5.461   1.924  -1.990  0.00  0.00    +0.000 C 
ATOM      4  C   UNL     1      -4.740   1.754  -3.376  0.00  0.00    +0.000 C 
ATOM      7  C   UNL     1      -2.291   0.886  -1.784  0.00  0.00    +0.000 C 
ATOM     11  C   UNL     1      -4.088   0.359  -3.526  0.00  0.00    +0.000 C 
ATOM     12  C   UNL     1      -2.539   0.544  -3.269  0.00  0.00    +0.000 C 
ATOM     16  C   UNL     1      -3.179   1.841  -0.973  0.00  0.00    +0.000 C 
ATOM     22  C   UNL     1      -4.555   1.824  -0.764  0.00  0.00    +0.000 C 
ENDBRANCH  21   7
ENDBRANCH  13  21
ENDBRANCH   2  13
TORSDOF 5
