REMARK  Name = 
REMARK  1 active torsions:
REMARK  status: ('A' for Active; 'I' for Inactive)
REMARK    1  A    between atoms: C_3  and  C_13
REMARK                            x       y       z     vdW  Elec       q    Type
REMARK                         _______ _______ _______ _____ _____    ______ ____
ROOT
ATOM      1  C   UNL     1       0.344   4.325  -1.560  0.00  0.00    +0.129 C 
ATOM      2  C   UNL     1      -1.258  -1.779   0.050  0.00  0.00    +0.006 A 
ATOM      3  C   UNL     1      -0.062  -0.854   0.127  0.00  0.00    +0.064 A 
ATOM      5  C   UNL     1      -4.626  -2.206   0.354  0.00  0.00    -0.051 C 
ATOM      6  C   UNL     1       1.019   1.562  -2.523  0.00  0.00    +0.165 C 
ATOM      8  C   UNL     1       0.123  -0.319  -1.264  0.00  0.00    +0.055 A 
ATOM      9  C   UNL     1      -1.006   0.688  -1.602  0.00  0.00    +0.072 A 
ATOM     10  C   UNL     1      -2.398   0.296  -0.977  0.00  0.00    +0.018 A 
ATOM     14  N   UNL     1       1.426   4.056  -2.565  0.00  0.00    -0.305 NA
ATOM     15  C   UNL     1      -2.326  -1.144  -0.564  0.00  0.00    +0.017 A 
ATOM     16  C   UNL     1      -3.514  -2.050  -0.739  0.00  0.00    +0.084 C 
ATOM     19  C   UNL     1      -0.177   3.016  -0.904  0.00  0.00    +0.048 C 
ATOM     20  N   UNL     1      -0.323   2.002  -2.001  0.00  0.00    -0.209 N 
ATOM     21  C   UNL     1       1.453   0.431  -1.534  0.00  0.00    -0.074 C 
ATOM     22  C   UNL     1       2.047   2.695  -2.474  0.00  0.00    +0.095 C 
ATOM     23  C   UNL     1      -4.982  -1.659  -1.107  0.00  0.00    -0.051 C 
ENDROOT
BRANCH   3  13
ATOM      4  C   UNL     1       3.349  -0.716   3.404  0.00  0.00    -0.056 C 
ATOM      7  C   UNL     1       0.453  -1.192   3.062  0.00  0.00    +0.020 C 
ATOM     11  C   UNL     1       0.971  -0.127   4.051  0.00  0.00    -0.056 C 
ATOM     12  C   UNL     1       2.882  -1.787   2.387  0.00  0.00    +0.020 C 
ATOM     13  C   UNL     1       1.103  -1.688   0.708  0.00  0.00    +0.271 C 
ATOM     17  N   UNL     1       1.480  -1.498   2.022  0.00  0.00    -0.150 N 
ATOM     18  C   UNL     1       2.361   0.449   3.661  0.00  0.00    +0.155 C 
ATOM     24  O   UNL     1       1.663  -2.502  -0.011  0.00  0.00    -0.268 OA
ENDBRANCH   3  13
TORSDOF 1
