REMARK  Name = 
REMARK  2 active torsions:
REMARK  status: ('A' for Active; 'I' for Inactive)
REMARK    1  A    between atoms: N_1  and  C_8
REMARK    2  A    between atoms: C_12  and  N_15
REMARK                            x       y       z     vdW  Elec       q    Type
REMARK                         _______ _______ _______ _____ _____    ______ ____
ROOT
ATOM      1  N   UNL     1      -1.109  -1.446  -1.093  0.00  0.00    -0.181 N 
ATOM      3  C   UNL     1       0.028   0.378   0.105  0.00  0.00    +0.037 C 
ATOM      9  C   UNL     1      -0.549  -0.952  -2.385  0.00  0.00    +0.037 C 
ATOM     11  C   UNL     1      -0.212  -1.158   0.044  0.00  0.00    +0.037 C 
ATOM     15  N   UNL     1       0.680   0.811  -1.146  0.00  0.00    -0.182 N 
ATOM     19  C   UNL     1      -0.222   0.555  -2.293  0.00  0.00    +0.037 C 
ENDROOT
BRANCH  15  12
ATOM      4  C   UNL     1       4.003   3.143   1.488  0.00  0.00    +0.080 C 
ATOM      6  C   UNL     1       3.951   0.739   0.998  0.00  0.00    +0.113 C 
ATOM     12  C   UNL     1       1.232   2.213  -1.168  0.00  0.00    +0.090 C 
ATOM     13  C   UNL     1       2.633   2.341  -0.544  0.00  0.00    +0.078 C 
ATOM     16  C   UNL     1       3.239   0.956  -0.331  0.00  0.00    -0.024 C 
ATOM     17  C   UNL     1       3.014   3.477   0.325  0.00  0.00    +0.117 C 
ATOM     18  C   UNL     1       0.188   3.084  -0.473  0.00  0.00    +0.067 C 
ATOM     21  N   UNL     1       3.658   1.790   2.034  0.00  0.00    -0.307 NA
ATOM     22  C   UNL     1       0.725   4.490  -0.171  0.00  0.00    -0.057 C 
ATOM     23  C   UNL     1       1.865   4.355   0.869  0.00  0.00    -0.049 C 
ENDBRANCH  15  12
BRANCH   1   8
ATOM      2  C   UNL     1      -2.947  -4.671  -0.078  0.00  0.00    -0.054 C 
ATOM      5  C   UNL     1      -3.648  -5.057   1.248  0.00  0.00    -0.071 C 
ATOM      7  C   UNL     1      -4.203  -2.620   1.714  0.00  0.00    -0.071 C 
ATOM      8  C   UNL     1      -1.563  -2.878  -1.171  0.00  0.00    +0.104 C 
ATOM     10  C   UNL     1      -2.402  -3.227   0.083  0.00  0.00    +0.100 C 
ATOM     14  C   UNL     1      -4.795  -4.056   1.605  0.00  0.00    +0.152 C 
ATOM     20  C   UNL     1      -3.566  -2.265   0.340  0.00  0.00    -0.054 C 
ENDBRANCH   1   8
TORSDOF 2
