REMARK  Name = 
REMARK  6 active torsions:
REMARK  status: ('A' for Active; 'I' for Inactive)
REMARK    1  A    between atoms: N_1  and  C_9
REMARK    2  A    between atoms: C_2  and  N_5
REMARK    3  A    between atoms: C_2  and  C_9
REMARK    4  A    between atoms: C_3  and  C_6
REMARK    5  A    between atoms: C_3  and  O_13
REMARK    6  A    between atoms: C_14  and  C_20
REMARK                            x       y       z     vdW  Elec       q    Type
REMARK                         _______ _______ _______ _____ _____    ______ ____
ROOT
ATOM      4  C   UNL     1      -2.068  -1.579   1.437  0.00  0.00    +0.017 C 
ATOM      5  N   UNL     1      -1.082  -2.286  -0.705  0.00  0.00    -0.270 NA
ATOM      6  C   UNL     1      -1.639   0.436   3.171  0.00  0.00    +0.030 C 
ATOM      8  C   UNL     1      -1.873  -0.907   3.858  0.00  0.00    +0.003 C 
ATOM     12  C   UNL     1      -0.917  -0.672   1.050  0.00  0.00    +0.019 C 
ATOM     14  C   UNL     1      -1.069  -0.736  -0.534  0.00  0.00    +0.091 C 
ATOM     16  C   UNL     1      -2.014  -2.745   0.400  0.00  0.00    +0.072 C 
ATOM     18  C   UNL     1      -0.633   0.446   2.018  0.00  0.00    +0.004 C 
ATOM     19  C   UNL     1      -1.990  -2.102   2.874  0.00  0.00    +0.002 C 
ENDROOT
BRANCH  14  20
ATOM     10  O   UNL     1       0.159   1.373  -1.472  0.00  0.00    -0.219 OA
ATOM     20  C   UNL     1      -0.213   0.349  -1.065  0.00  0.00    +0.198 C 
ENDBRANCH  14  20
BRANCH   5   2
ATOM      2  C   UNL     1       0.179  -2.217  -2.130  0.00  0.00    +0.090 C 
BRANCH   2   9
ATOM      9  C   UNL     1      -0.102  -0.998  -2.982  0.00  0.00    +0.090 C 
BRANCH   9   1
ATOM      1  N   UNL     1       1.107  -0.078  -3.096  0.00  0.00    -0.272 NA
ATOM      7  C   UNL     1       3.957   1.240  -3.403  0.00  0.00    +0.001 C 
ATOM     11  C   UNL     1       3.214   2.428  -2.686  0.00  0.00    +0.001 C 
ATOM     15  C   UNL     1       1.666   2.373  -2.782  0.00  0.00    +0.017 C 
ATOM     17  C   UNL     1       0.999   1.313  -3.650  0.00  0.00    +0.072 C 
ATOM     22  C   UNL     1       2.395  -0.732  -3.507  0.00  0.00    +0.072 C 
ATOM     23  C   UNL     1       3.597  -0.086  -2.748  0.00  0.00    +0.017 C 
ENDBRANCH   9   1
ENDBRANCH   2   9
ENDBRANCH   5   2
BRANCH   6   3
ATOM      3  C   UNL     1      -1.065   1.524   4.113  0.00  0.00    +0.142 C 
BRANCH   3  13
ATOM     13  O   UNL     1      -1.457   1.287   5.450  0.00  0.00    -0.351 OA
ATOM     21  C   UNL     1      -1.151   2.369   6.389  0.00  0.00    +0.174 C 
ENDBRANCH   3  13
ENDBRANCH   6   3
TORSDOF 6
