REMARK  Name = 
REMARK  2 active torsions:
REMARK  status: ('A' for Active; 'I' for Inactive)
REMARK    1  A    between atoms: C_3  and  C_13
REMARK    2  A    between atoms: C_5  and  C_13
REMARK                            x       y       z     vdW  Elec       q    Type
REMARK                         _______ _______ _______ _____ _____    ______ ____
ROOT
ATOM     13  C   UNL     1      -1.298   2.822  -1.040  0.00  0.00    -0.047 C 
ATOM     36  H   UNL     1       0.000   0.000   0.000  0.00  0.00    +0.027 HD
ATOM     37  H   UNL     1       0.000   0.000   0.000  0.00  0.00    +0.027 HD
ENDROOT
BRANCH  13   3
ATOM      1  C   UNL     1      -3.987   2.410   1.649  0.00  0.00    -0.053 C 
ATOM      2  C   UNL     1      -1.981   3.636   2.652  0.00  0.00    -0.053 C 
ATOM      3  C   UNL     1      -1.952   2.781   0.351  0.00  0.00    -0.041 C 
ATOM      6  C   UNL     1      -1.439   3.887   1.226  0.00  0.00    -0.050 C 
ATOM     10  C   UNL     1      -3.464   2.696   0.232  0.00  0.00    -0.050 C 
ATOM     11  C   UNL     1      -3.513   3.527   2.601  0.00  0.00    -0.053 C 
ATOM     14  H   UNL     1       0.000   0.000   0.000  0.00  0.00    +0.027 HD
ATOM     15  H   UNL     1       0.000   0.000   0.000  0.00  0.00    +0.027 HD
ATOM     16  H   UNL     1       0.000   0.000   0.000  0.00  0.00    +0.027 HD
ATOM     17  H   UNL     1       0.000   0.000   0.000  0.00  0.00    +0.027 HD
ATOM     18  H   UNL     1       0.000   0.000   0.000  0.00  0.00    +0.030 HD
ATOM     22  H   UNL     1       0.000   0.000   0.000  0.00  0.00    +0.027 HD
ATOM     23  H   UNL     1       0.000   0.000   0.000  0.00  0.00    +0.027 HD
ATOM     30  H   UNL     1       0.000   0.000   0.000  0.00  0.00    +0.027 HD
ATOM     31  H   UNL     1       0.000   0.000   0.000  0.00  0.00    +0.027 HD
ATOM     32  H   UNL     1       0.000   0.000   0.000  0.00  0.00    +0.027 HD
ATOM     33  H   UNL     1       0.000   0.000   0.000  0.00  0.00    +0.027 HD
ENDBRANCH  13   3
BRANCH  13   5
ATOM      4  C   UNL     1       2.456   3.184  -0.328  0.00  0.00    -0.053 C 
ATOM      5  C   UNL     1       0.144   2.328  -0.700  0.00  0.00    -0.041 C 
ATOM      7  C   UNL     1       0.593   1.339  -1.750  0.00  0.00    -0.050 C 
ATOM      8  C   UNL     1       2.892   2.396  -1.579  0.00  0.00    -0.053 C 
ATOM      9  C   UNL     1       0.978   3.558  -0.497  0.00  0.00    -0.050 C 
ATOM     12  C   UNL     1       2.107   1.095  -1.668  0.00  0.00    -0.053 C 
ATOM     19  H   UNL     1       0.000   0.000   0.000  0.00  0.00    +0.027 HD
ATOM     20  H   UNL     1       0.000   0.000   0.000  0.00  0.00    +0.027 HD
ATOM     21  H   UNL     1       0.000   0.000   0.000  0.00  0.00    +0.030 HD
ATOM     24  H   UNL     1       0.000   0.000   0.000  0.00  0.00    +0.027 HD
ATOM     25  H   UNL     1       0.000   0.000   0.000  0.00  0.00    +0.027 HD
ATOM     26  H   UNL     1       0.000   0.000   0.000  0.00  0.00    +0.027 HD
ATOM     27  H   UNL     1       0.000   0.000   0.000  0.00  0.00    +0.027 HD
ATOM     28  H   UNL     1       0.000   0.000   0.000  0.00  0.00    +0.027 HD
ATOM     29  H   UNL     1       0.000   0.000   0.000  0.00  0.00    +0.027 HD
ATOM     34  H   UNL     1       0.000   0.000   0.000  0.00  0.00    +0.027 HD
ATOM     35  H   UNL     1       0.000   0.000   0.000  0.00  0.00    +0.027 HD
ENDBRANCH  13   5
TORSDOF 2
