REMARK  Name = 
REMARK  0 active torsions:
REMARK  status: ('A' for Active; 'I' for Inactive)
REMARK                            x       y       z     vdW  Elec       q    Type
REMARK                         _______ _______ _______ _____ _____    ______ ____
ROOT
ATOM      1  N   UNL     1       0.829   1.469   0.001  0.00  0.00    -0.097 NA
ATOM      2  F   UNL     1       1.589   0.867  -2.018  0.00  0.00    -0.159 F 
ATOM      3  C   UNL     1      -0.579   0.005   1.032  0.00  0.00    +0.287 A 
ATOM      4  N   UNL     1       0.076   1.183   1.067  0.00  0.00    -0.110 NA
ATOM      5  C   UNL     1      -0.483  -0.943  -0.062  0.00  0.00    +0.273 A 
ATOM      6  F   UNL     1      -1.359  -0.310   2.050  0.00  0.00    -0.177 F 
ATOM      7  F   UNL     1      -1.163  -2.083   0.017  0.00  0.00    -0.179 F 
ATOM      8  C   UNL     1       0.847   0.514  -0.979  0.00  0.00    +0.330 A 
ATOM      9  N   UNL     1       0.243  -0.703  -1.108  0.00  0.00    -0.168 NA
ENDROOT
TORSDOF 0
