REMARK  Name = 
REMARK  0 active torsions:
REMARK  status: ('A' for Active; 'I' for Inactive)
REMARK                            x       y       z     vdW  Elec       q    Type
REMARK                         _______ _______ _______ _____ _____    ______ ____
ROOT
ATOM      1  C   UNL     1       0.260   0.365  -1.019  0.00  0.00    +0.186 A 
ATOM      2  O   UNL     1      -0.420  -0.505   1.510  0.00  0.00    -0.333 OA
ATOM      3  C   UNL     1       0.782  -0.850  -0.397  0.00  0.00    +0.285 A 
ATOM      4  F   UNL     1       0.647   0.625  -2.240  0.00  0.00    -0.200 F 
ATOM      5  N   UNL     1      -1.778   1.390   1.738  0.00  0.00    -0.265 NA
ATOM      6  F   UNL     1       1.611  -1.564  -1.113  0.00  0.00    -0.178 F 
ATOM      7  C   UNL     1      -0.966   0.685   1.032  0.00  0.00    +0.245 A 
ATOM      8  N   UNL     1       0.494  -1.299   0.813  0.00  0.00    -0.043 NA
ATOM      9  C   UNL     1      -0.631   1.152  -0.322  0.00  0.00    +0.042 A 
ATOM     10  H   UNL     1       0.000   0.000   0.000  0.00  0.00    +0.190 HD
ATOM     11  H   UNL     1       0.000   0.000   0.000  0.00  0.00    +0.070 HD
ENDROOT
TORSDOF 0
