REMARK  Name = 
REMARK  1 active torsions:
REMARK  status: ('A' for Active; 'I' for Inactive)
REMARK    1  A    between atoms: O_5  and  C_8
REMARK                            x       y       z     vdW  Elec       q    Type
REMARK                         _______ _______ _______ _____ _____    ______ ____
ROOT
ATOM      1  C   UNL     1       1.051   0.940  -0.421  0.00  0.00    +0.287 C 
ATOM      2  N   UNL     1      -1.030   0.993   0.706  0.00  0.00    -0.040 NA
ATOM      3  F   UNL     1      -0.147  -2.385  -0.283  0.00  0.00    -0.200 F 
ATOM      4  O   UNL     1       0.124   1.625   0.200  0.00  0.00    -0.349 OA
ATOM      6  C   UNL     1       0.004  -1.088  -0.162  0.00  0.00    +0.190 C 
ATOM      7  F   UNL     1       1.990   1.704  -0.833  0.00  0.00    -0.193 F 
ATOM      8  C   UNL     1      -1.034  -0.329   0.508  0.00  0.00    +0.284 C 
ATOM      9  C   UNL     1       1.120  -0.449  -0.666  0.00  0.00    +0.031 C 
ATOM     10  H   UNL     1       0.000   0.000   0.000  0.00  0.00    +0.118 HD
ATOM     12  H   UNL     1       0.000   0.000   0.000  0.00  0.00    +0.067 HD
ENDROOT
BRANCH   8   5
ATOM      5  O   UNL     1      -2.077  -1.010   0.951  0.00  0.00    -0.489 OA
ATOM     11  H   UNL     1       0.000   0.000   0.000  0.00  0.00    +0.294 HD
ENDBRANCH   8   5
TORSDOF 1
