REMARK  Name = 
REMARK  0 active torsions:
REMARK  status: ('A' for Active; 'I' for Inactive)
REMARK                            x       y       z     vdW  Elec       q    Type
REMARK                         _______ _______ _______ _____ _____    ______ ____
ROOT
ATOM      1  C   UNL     1       1.405  -0.568  -1.284  0.00  0.00    +0.116 C 
ATOM      2  N   UNL     1       0.169  -1.025  -1.689  0.00  0.00    -0.174 NA
ATOM      3  O   UNL     1      -0.925  -0.784  -0.875  0.00  0.00    -0.223 OA
ATOM      4  N   UNL     1       1.701   0.122  -0.091  0.00  0.00    -0.236 NA
ATOM      5  C   UNL     1       0.657   0.409   0.630  0.00  0.00    +0.287 C 
ATOM      6  F   UNL     1      -1.439  -0.465   1.299  0.00  0.00    -0.165 F 
ATOM      7  F   UNL     1      -1.517   1.173   0.054  0.00  0.00    -0.165 F 
ATOM      8  C   UNL     1      -0.769   0.053   0.242  0.00  0.00    +0.443 C 
ATOM      9  F   UNL     1       0.717   1.085   1.713  0.00  0.00    -0.180 F 
ATOM     10  H   UNL     1       0.000   0.000   0.000  0.00  0.00    +0.070 HD
ATOM     11  H   UNL     1       0.000   0.000   0.000  0.00  0.00    +0.070 HD
ATOM     12  H   UNL     1       0.000   0.000   0.000  0.00  0.00    +0.156 HD
ENDROOT
TORSDOF 0
