REMARK  Name = 
REMARK  1 active torsions:
REMARK  status: ('A' for Active; 'I' for Inactive)
REMARK    1  A    between atoms: O_2  and  C_5
REMARK                            x       y       z     vdW  Elec       q    Type
REMARK                         _______ _______ _______ _____ _____    ______ ____
ROOT
ATOM      1  F   UNL     1       0.503  -0.085  -2.104  0.00  0.00    -0.156 F 
ATOM      3  C   UNL     1      -0.249   0.144  -0.977  0.00  0.00    +0.476 C 
ATOM      4  N   UNL     1      -0.836  -1.136  -0.567  0.00  0.00    -0.055 NA
ATOM      5  C   UNL     1       0.640   0.447   1.074  0.00  0.00    +0.418 C 
ATOM      6  N   UNL     1      -0.748  -1.532   0.660  0.00  0.00    +0.041 NA
ATOM      7  N   UNL     1       0.525   0.986  -0.104  0.00  0.00    -0.121 NA
ATOM      8  O   UNL     1       0.003  -0.694   1.585  0.00  0.00    -0.280 OA
ATOM      9  F   UNL     1      -1.261   0.887  -1.550  0.00  0.00    -0.156 F 
ENDROOT
BRANCH   5   2
ATOM      2  O   UNL     1       1.424   0.983   1.984  0.00  0.00    -0.464 OA
ATOM     10  H   UNL     1       0.000   0.000   0.000  0.00  0.00    +0.297 HD
ENDBRANCH   5   2
TORSDOF 1
