REMARK  Name = 
REMARK  4 active torsions:
REMARK  status: ('A' for Active; 'I' for Inactive)
REMARK    1  A    between atoms: C_2  and  C_6
REMARK    2  A    between atoms: C_2  and  C_8
REMARK    3  A    between atoms: O_3  and  C_8
REMARK    4  A    between atoms: C_6  and  O_9
REMARK                            x       y       z     vdW  Elec       q    Type
REMARK                         _______ _______ _______ _____ _____    ______ ____
ROOT
ATOM      2  C   UNL     1       0.266   0.124  -0.575  0.00  0.00    +0.396 C 
ATOM      4  F   UNL     1      -0.073   1.036  -1.522  0.00  0.00    -0.187 F 
ATOM      5  F   UNL     1       1.289  -0.415  -1.303  0.00  0.00    -0.187 F 
ENDROOT
BRANCH   2   8
ATOM      1  F   UNL     1       1.573   1.411   0.920  0.00  0.00    -0.208 F 
ATOM      8  C   UNL     1       0.611   0.619   0.775  0.00  0.00    +0.272 C 
ATOM     11  H   UNL     1       0.000   0.000   0.000  0.00  0.00    +0.103 HD
BRANCH   8   3
ATOM      3  O   UNL     1      -0.081   0.323   1.786  0.00  0.00    -0.359 OA
ATOM     10  H   UNL     1       0.000   0.000   0.000  0.00  0.00    +0.213 HD
ENDBRANCH   8   3
ENDBRANCH   2   8
BRANCH   2   6
ATOM      6  C   UNL     1      -0.882  -0.820  -0.183  0.00  0.00    +0.381 C 
ATOM      7  O   UNL     1      -1.463  -1.472  -1.017  0.00  0.00    -0.244 OA
BRANCH   6   9
ATOM      9  O   UNL     1      -1.240  -0.807   1.119  0.00  0.00    -0.476 OA
ATOM     12  H   UNL     1       0.000   0.000   0.000  0.00  0.00    +0.295 HD
ENDBRANCH   6   9
ENDBRANCH   2   6
TORSDOF 4
