REMARK  Name = 
REMARK  0 active torsions:
REMARK  status: ('A' for Active; 'I' for Inactive)
REMARK                            x       y       z     vdW  Elec       q    Type
REMARK                         _______ _______ _______ _____ _____    ______ ____
ROOT
ATOM      1  C   UNL     1       1.303  -0.610  -0.061  0.00  0.00    +0.337 C 
ATOM      2  C   UNL     1       0.449  -0.240   1.143  0.00  0.00    +0.139 C 
ATOM      3  F   UNL     1      -1.576  -0.972   0.064  0.00  0.00    -0.173 F 
ATOM      4  C   UNL     1      -0.928   0.142   0.570  0.00  0.00    +0.385 C 
ATOM      5  N   UNL     1       0.085   1.158  -1.522  0.00  0.00    -0.021 NA
ATOM      6  F   UNL     1      -1.792   0.581   1.477  0.00  0.00    -0.173 F 
ATOM      7  O   UNL     1       1.240   0.292  -1.173  0.00  0.00    -0.344 OA
ATOM      8  O   UNL     1       2.038  -1.557  -0.071  0.00  0.00    -0.249 OA
ATOM      9  O   UNL     1      -0.819   1.206  -0.427  0.00  0.00    -0.196 OA
ATOM     10  H   UNL     1       0.000   0.000   0.000  0.00  0.00    +0.046 HD
ATOM     11  H   UNL     1       0.000   0.000   0.000  0.00  0.00    +0.046 HD
ATOM     12  H   UNL     1       0.000   0.000   0.000  0.00  0.00    +0.202 HD
ENDROOT
TORSDOF 0
