REMARK  Name = 
REMARK  4 active torsions:
REMARK  status: ('A' for Active; 'I' for Inactive)
REMARK    1  A    between atoms: C_3  and  S_12
REMARK    2  A    between atoms: C_3  and  C_13
REMARK    3  A    between atoms: S_12  and  C_16
REMARK    4  A    between atoms: C_13  and  C_14
REMARK                            x       y       z     vdW  Elec       q    Type
REMARK                         _______ _______ _______ _____ _____    ______ ____
ROOT
ATOM      3  C   UNL     1       0.465   0.478   0.682  0.00  0.00    +0.002 C 
ATOM     23  H   UNL     1       0.000   0.000   0.000  0.00  0.00    +0.038 HD
ATOM     24  H   UNL     1       0.000   0.000   0.000  0.00  0.00    +0.038 HD
ENDROOT
BRANCH   3  13
ATOM     13  C   UNL     1      -0.181  -0.166  -0.526  0.00  0.00    +0.033 C 
ATOM     36  H   UNL     1       0.000   0.000   0.000  0.00  0.00    +0.037 HD
ATOM     37  H   UNL     1       0.000   0.000   0.000  0.00  0.00    +0.037 HD
BRANCH  13  14
ATOM      4  C   UNL     1      -2.645  -3.679  -2.667  0.00  0.00    +0.104 C 
ATOM      5  C   UNL     1      -1.491  -2.698  -3.042  0.00  0.00    -0.006 C 
ATOM      6  O   UNL     1      -2.333   0.605   0.288  0.00  0.00    -0.276 OA
ATOM      7  C   UNL     1      -3.057  -3.491  -1.177  0.00  0.00    -0.006 C 
ATOM     10  C   UNL     1      -3.388  -2.006  -0.854  0.00  0.00    +0.017 C 
ATOM     11  F   UNL     1      -2.173  -4.996  -2.845  0.00  0.00    -0.245 F 
ATOM     14  C   UNL     1      -1.713  -0.158  -0.448  0.00  0.00    +0.216 C 
ATOM     17  C   UNL     1      -1.826  -1.227  -2.709  0.00  0.00    +0.017 C 
ATOM     18  N   UNL     1      -2.297  -1.112  -1.302  0.00  0.00    -0.301 N 
ATOM     25  H   UNL     1       0.000   0.000   0.000  0.00  0.00    +0.065 HD
ATOM     26  H   UNL     1       0.000   0.000   0.000  0.00  0.00    +0.031 HD
ATOM     27  H   UNL     1       0.000   0.000   0.000  0.00  0.00    +0.031 HD
ATOM     28  H   UNL     1       0.000   0.000   0.000  0.00  0.00    +0.031 HD
ATOM     29  H   UNL     1       0.000   0.000   0.000  0.00  0.00    +0.031 HD
ATOM     34  H   UNL     1       0.000   0.000   0.000  0.00  0.00    +0.047 HD
ATOM     35  H   UNL     1       0.000   0.000   0.000  0.00  0.00    +0.047 HD
ATOM     41  H   UNL     1       0.000   0.000   0.000  0.00  0.00    +0.047 HD
ATOM     42  H   UNL     1       0.000   0.000   0.000  0.00  0.00    +0.047 HD
ENDBRANCH  13  14
ENDBRANCH   3  13
BRANCH   3  12
ATOM     12  S   UNL     1       0.807   2.267   0.403  0.00  0.00    -0.157 S 
BRANCH  12  16
ATOM      1  C   UNL     1       3.893   3.971   2.483  0.00  0.00    -0.052 C 
ATOM      2  C   UNL     1       2.731   1.411   2.230  0.00  0.00    -0.041 C 
ATOM      8  C   UNL     1       2.810   3.790   1.605  0.00  0.00    -0.041 C 
ATOM      9  C   UNL     1       3.806   1.603   3.134  0.00  0.00    -0.052 C 
ATOM     15  C   UNL     1       4.377   2.896   3.263  0.00  0.00    -0.053 C 
ATOM     16  C   UNL     1       2.214   2.513   1.482  0.00  0.00    +0.005 C 
ATOM     19  H   UNL     1       0.000   0.000   0.000  0.00  0.00    +0.027 HD
ATOM     20  H   UNL     1       0.000   0.000   0.000  0.00  0.00    +0.027 HD
ATOM     21  H   UNL     1       0.000   0.000   0.000  0.00  0.00    +0.028 HD
ATOM     22  H   UNL     1       0.000   0.000   0.000  0.00  0.00    +0.028 HD
ATOM     30  H   UNL     1       0.000   0.000   0.000  0.00  0.00    +0.028 HD
ATOM     31  H   UNL     1       0.000   0.000   0.000  0.00  0.00    +0.028 HD
ATOM     32  H   UNL     1       0.000   0.000   0.000  0.00  0.00    +0.027 HD
ATOM     33  H   UNL     1       0.000   0.000   0.000  0.00  0.00    +0.027 HD
ATOM     38  H   UNL     1       0.000   0.000   0.000  0.00  0.00    +0.027 HD
ATOM     39  H   UNL     1       0.000   0.000   0.000  0.00  0.00    +0.027 HD
ATOM     40  H   UNL     1       0.000   0.000   0.000  0.00  0.00    +0.041 HD
ENDBRANCH  12  16
ENDBRANCH   3  12
TORSDOF 4
