REMARK  Name = 
REMARK  3 active torsions:
REMARK  status: ('A' for Active; 'I' for Inactive)
REMARK    1  A    between atoms: C_5  and  O_6
REMARK    2  A    between atoms: C_9  and  N_19
REMARK    3  A    between atoms: C_10  and  C_11
REMARK                            x       y       z     vdW  Elec       q    Type
REMARK                         _______ _______ _______ _____ _____    ______ ____
ROOT
ATOM      1  C   UNL     1       0.438   0.033  -0.962  0.00  0.00    +0.306 C 
ATOM      4  O   UNL     1       0.974  -0.868  -0.314  0.00  0.00    -0.252 OA
ATOM     11  C   UNL     1       1.526   2.416  -0.264  0.00  0.00    +0.223 C 
ATOM     13  O   UNL     1       1.691   3.503  -0.816  0.00  0.00    -0.275 OA
ATOM     16  N   UNL     1       0.770   1.406  -0.896  0.00  0.00    -0.240 N 
ATOM     19  N   UNL     1      -0.657  -0.160  -1.840  0.00  0.00    -0.296 N 
ATOM     38  H   UNL     1       0.000   0.000   0.000  0.00  0.00    +0.159 HD
ATOM     43  H   UNL     1       0.000   0.000   0.000  0.00  0.00    +0.151 HD
ENDROOT
BRANCH  11  10
ATOM      2  C   UNL     1       2.280   0.817   1.632  0.00  0.00    -0.042 C 
ATOM      7  C   UNL     1       2.226   3.232   3.464  0.00  0.00    -0.052 C 
ATOM      8  C   UNL     1       2.959   1.937   3.889  0.00  0.00    -0.053 C 
ATOM     10  C   UNL     1       1.993   2.184   1.121  0.00  0.00    +0.036 C 
ATOM     12  C   UNL     1       2.418   0.700   3.155  0.00  0.00    -0.052 C 
ATOM     14  C   UNL     1       2.245   3.414   1.917  0.00  0.00    -0.042 C 
ATOM     20  H   UNL     1       0.000   0.000   0.000  0.00  0.00    +0.027 HD
ATOM     21  H   UNL     1       0.000   0.000   0.000  0.00  0.00    +0.027 HD
ATOM     26  H   UNL     1       0.000   0.000   0.000  0.00  0.00    +0.027 HD
ATOM     27  H   UNL     1       0.000   0.000   0.000  0.00  0.00    +0.027 HD
ATOM     28  H   UNL     1       0.000   0.000   0.000  0.00  0.00    +0.027 HD
ATOM     29  H   UNL     1       0.000   0.000   0.000  0.00  0.00    +0.027 HD
ATOM     31  H   UNL     1       0.000   0.000   0.000  0.00  0.00    +0.039 HD
ATOM     32  H   UNL     1       0.000   0.000   0.000  0.00  0.00    +0.027 HD
ATOM     33  H   UNL     1       0.000   0.000   0.000  0.00  0.00    +0.027 HD
ATOM     34  H   UNL     1       0.000   0.000   0.000  0.00  0.00    +0.027 HD
ATOM     35  H   UNL     1       0.000   0.000   0.000  0.00  0.00    +0.027 HD
ENDBRANCH  11  10
BRANCH  19   9
ATOM      3  C   UNL     1      -3.824  -2.113  -1.358  0.00  0.00    -0.025 C 
ATOM      5  C   UNL     1      -3.341  -3.436  -1.296  0.00  0.00    +0.055 C 
ATOM      9  C   UNL     1      -1.553  -1.272  -1.700  0.00  0.00    +0.025 C 
ATOM     15  C   UNL     1      -1.950  -3.680  -1.439  0.00  0.00    -0.025 C 
ATOM     17  C   UNL     1      -2.941  -1.047  -1.569  0.00  0.00    -0.032 C 
ATOM     18  C   UNL     1      -1.071  -2.589  -1.649  0.00  0.00    -0.032 C 
ATOM     22  H   UNL     1       0.000   0.000   0.000  0.00  0.00    +0.029 HD
ATOM     23  H   UNL     1       0.000   0.000   0.000  0.00  0.00    +0.029 HD
ATOM     24  H   UNL     1       0.000   0.000   0.000  0.00  0.00    +0.059 HD
ATOM     30  H   UNL     1       0.000   0.000   0.000  0.00  0.00    +0.050 HD
ATOM     36  H   UNL     1       0.000   0.000   0.000  0.00  0.00    +0.029 HD
ATOM     37  H   UNL     1       0.000   0.000   0.000  0.00  0.00    +0.029 HD
ATOM     39  H   UNL     1       0.000   0.000   0.000  0.00  0.00    +0.028 HD
ATOM     40  H   UNL     1       0.000   0.000   0.000  0.00  0.00    +0.028 HD
ATOM     41  H   UNL     1       0.000   0.000   0.000  0.00  0.00    +0.028 HD
ATOM     42  H   UNL     1       0.000   0.000   0.000  0.00  0.00    +0.028 HD
BRANCH   5   6
ATOM      6  O   UNL     1      -4.183  -4.477  -1.074  0.00  0.00    -0.392 OA
ATOM     25  H   UNL     1       0.000   0.000   0.000  0.00  0.00    +0.210 HD
ENDBRANCH   5   6
ENDBRANCH  19   9
TORSDOF 3
