REMARK  Name = 
REMARK  3 active torsions:
REMARK  status: ('A' for Active; 'I' for Inactive)
REMARK    1  A    between atoms: C_5  and  C_12
REMARK    2  A    between atoms: C_5  and  C_16
REMARK    3  A    between atoms: C_6  and  N_11
REMARK                            x       y       z     vdW  Elec       q    Type
REMARK                         _______ _______ _______ _____ _____    ______ ____
ROOT
ATOM      4  O   UNL     1       3.229  -4.996  -5.547  0.00  0.00    -0.276 OA
ATOM     11  N   UNL     1       5.386  -4.244  -6.046  0.00  0.00    -0.312 N 
ATOM     12  C   UNL     1       4.223  -4.372  -5.281  0.00  0.00    +0.214 C 
ATOM     35  H   UNL     1       0.000   0.000   0.000  0.00  0.00    +0.149 HD
ENDROOT
BRANCH  11   6
ATOM      2  C   UNL     1       4.238  -5.282  -7.934  0.00  0.00    -0.032 C 
ATOM      3  C   UNL     1       6.439  -4.018  -8.271  0.00  0.00    -0.032 C 
ATOM      6  C   UNL     1       5.407  -4.514  -7.432  0.00  0.00    +0.023 C 
ATOM     13  C   UNL     1       5.424  -5.231 -10.311  0.00  0.00    +0.101 C 
ATOM     14  F   UNL     1       5.397  -5.539 -11.577  0.00  0.00    -0.246 F 
ATOM     15  C   UNL     1       6.499  -4.410  -9.745  0.00  0.00    -0.020 C 
ATOM     17  C   UNL     1       4.334  -5.769  -9.400  0.00  0.00    -0.020 C 
ATOM     21  H   UNL     1       0.000   0.000   0.000  0.00  0.00    +0.028 HD
ATOM     22  H   UNL     1       0.000   0.000   0.000  0.00  0.00    +0.028 HD
ATOM     23  H   UNL     1       0.000   0.000   0.000  0.00  0.00    +0.028 HD
ATOM     24  H   UNL     1       0.000   0.000   0.000  0.00  0.00    +0.028 HD
ATOM     27  H   UNL     1       0.000   0.000   0.000  0.00  0.00    +0.050 HD
ATOM     36  H   UNL     1       0.000   0.000   0.000  0.00  0.00    +0.065 HD
ATOM     37  H   UNL     1       0.000   0.000   0.000  0.00  0.00    +0.029 HD
ATOM     38  H   UNL     1       0.000   0.000   0.000  0.00  0.00    +0.029 HD
ATOM     40  H   UNL     1       0.000   0.000   0.000  0.00  0.00    +0.029 HD
ATOM     41  H   UNL     1       0.000   0.000   0.000  0.00  0.00    +0.029 HD
ENDBRANCH  11   6
BRANCH  12   5
ATOM      5  C   UNL     1       4.461  -3.558  -3.984  0.00  0.00    +0.027 C 
ATOM     25  H   UNL     1       0.000   0.000   0.000  0.00  0.00    +0.036 HD
ATOM     26  H   UNL     1       0.000   0.000   0.000  0.00  0.00    +0.036 HD
BRANCH   5  16
ATOM      1  C   UNL     1       2.347  -1.925  -1.048  0.00  0.00    -0.021 C 
ATOM      7  C   UNL     1       2.144  -2.214  -4.011  0.00  0.00    -0.047 C 
ATOM      8  C   UNL     1       1.011  -1.525  -3.227  0.00  0.00    -0.021 C 
ATOM      9  C   UNL     1       1.185  -1.233  -1.744  0.00  0.00    +0.101 C 
ATOM     10  C   UNL     1       3.502  -2.495  -1.881  0.00  0.00    -0.047 C 
ATOM     16  C   UNL     1       3.278  -2.926  -3.308  0.00  0.00    -0.033 C 
ATOM     18  F   UNL     1       0.189  -0.699  -1.086  0.00  0.00    -0.246 F 
ATOM     19  H   UNL     1       0.000   0.000   0.000  0.00  0.00    +0.029 HD
ATOM     20  H   UNL     1       0.000   0.000   0.000  0.00  0.00    +0.029 HD
ATOM     28  H   UNL     1       0.000   0.000   0.000  0.00  0.00    +0.027 HD
ATOM     29  H   UNL     1       0.000   0.000   0.000  0.00  0.00    +0.027 HD
ATOM     30  H   UNL     1       0.000   0.000   0.000  0.00  0.00    +0.029 HD
ATOM     31  H   UNL     1       0.000   0.000   0.000  0.00  0.00    +0.029 HD
ATOM     32  H   UNL     1       0.000   0.000   0.000  0.00  0.00    +0.065 HD
ATOM     33  H   UNL     1       0.000   0.000   0.000  0.00  0.00    +0.027 HD
ATOM     34  H   UNL     1       0.000   0.000   0.000  0.00  0.00    +0.027 HD
ATOM     39  H   UNL     1       0.000   0.000   0.000  0.00  0.00    +0.031 HD
ENDBRANCH   5  16
ENDBRANCH  12   5
TORSDOF 3
