REMARK  Name = 
REMARK  2 active torsions:
REMARK  status: ('A' for Active; 'I' for Inactive)
REMARK    1  A    between atoms: C_11  and  C_18
REMARK    2  A    between atoms: C_12  and  N_17
REMARK                            x       y       z     vdW  Elec       q    Type
REMARK                         _______ _______ _______ _____ _____    ______ ____
ROOT
ATOM      2  N   UNL     1      -4.039  -1.763   3.472  0.00  0.00    -0.240 N 
ATOM      8  O   UNL     1      -4.524  -1.673   5.788  0.00  0.00    -0.275 OA
ATOM     11  C   UNL     1      -4.860  -1.730   4.595  0.00  0.00    +0.224 C 
ATOM     13  C   UNL     1      -2.669  -1.395   3.558  0.00  0.00    +0.306 C 
ATOM     14  O   UNL     1      -2.068  -1.102   4.599  0.00  0.00    -0.252 OA
ATOM     17  N   UNL     1      -2.110  -1.389   2.254  0.00  0.00    -0.296 N 
ATOM     21  H   UNL     1       0.000   0.000   0.000  0.00  0.00    +0.159 HD
ATOM     39  H   UNL     1       0.000   0.000   0.000  0.00  0.00    +0.151 HD
ENDROOT
BRANCH  17  12
ATOM      1  C   UNL     1       1.708  -1.312   2.393  0.00  0.00    -0.051 C 
ATOM      5  C   UNL     1       2.070  -0.649   1.048  0.00  0.00    -0.053 C 
ATOM      7  C   UNL     1       0.257  -1.389   2.942  0.00  0.00    -0.034 C 
ATOM      9  C   UNL     1       0.864   0.048   0.394  0.00  0.00    -0.051 C 
ATOM     12  C   UNL     1      -0.773  -1.029   2.047  0.00  0.00    +0.025 C 
ATOM     15  C   UNL     1      -0.535  -0.455   0.681  0.00  0.00    -0.034 C 
ATOM     19  H   UNL     1       0.000   0.000   0.000  0.00  0.00    +0.027 HD
ATOM     20  H   UNL     1       0.000   0.000   0.000  0.00  0.00    +0.027 HD
ATOM     24  H   UNL     1       0.000   0.000   0.000  0.00  0.00    +0.027 HD
ATOM     25  H   UNL     1       0.000   0.000   0.000  0.00  0.00    +0.027 HD
ATOM     28  H   UNL     1       0.000   0.000   0.000  0.00  0.00    +0.028 HD
ATOM     29  H   UNL     1       0.000   0.000   0.000  0.00  0.00    +0.028 HD
ATOM     30  H   UNL     1       0.000   0.000   0.000  0.00  0.00    +0.027 HD
ATOM     31  H   UNL     1       0.000   0.000   0.000  0.00  0.00    +0.027 HD
ATOM     34  H   UNL     1       0.000   0.000   0.000  0.00  0.00    +0.050 HD
ATOM     35  H   UNL     1       0.000   0.000   0.000  0.00  0.00    +0.028 HD
ATOM     36  H   UNL     1       0.000   0.000   0.000  0.00  0.00    +0.028 HD
ENDBRANCH  17  12
BRANCH  11  18
ATOM      3  O   UNL     1      -8.974  -1.466   3.220  0.00  0.00    -0.380 OA
ATOM      4  C   UNL     1      -6.620  -2.336   2.892  0.00  0.00    -0.018 C 
ATOM      6  C   UNL     1      -8.113  -2.409   2.546  0.00  0.00    +0.048 C 
ATOM     10  C   UNL     1      -7.294  -1.036   4.992  0.00  0.00    -0.018 C 
ATOM     16  C   UNL     1      -8.766  -1.341   4.634  0.00  0.00    +0.048 C 
ATOM     18  C   UNL     1      -6.293  -1.755   4.163  0.00  0.00    +0.040 C 
ATOM     22  H   UNL     1       0.000   0.000   0.000  0.00  0.00    +0.029 HD
ATOM     23  H   UNL     1       0.000   0.000   0.000  0.00  0.00    +0.029 HD
ATOM     26  H   UNL     1       0.000   0.000   0.000  0.00  0.00    +0.056 HD
ATOM     27  H   UNL     1       0.000   0.000   0.000  0.00  0.00    +0.056 HD
ATOM     32  H   UNL     1       0.000   0.000   0.000  0.00  0.00    +0.029 HD
ATOM     33  H   UNL     1       0.000   0.000   0.000  0.00  0.00    +0.029 HD
ATOM     37  H   UNL     1       0.000   0.000   0.000  0.00  0.00    +0.056 HD
ATOM     38  H   UNL     1       0.000   0.000   0.000  0.00  0.00    +0.056 HD
ATOM     40  H   UNL     1       0.000   0.000   0.000  0.00  0.00    +0.040 HD
ENDBRANCH  11  18
TORSDOF 2
