REMARK  Name = 
REMARK  5 active torsions:
REMARK  status: ('A' for Active; 'I' for Inactive)
REMARK    1  A    between atoms: C_2  and  O_6
REMARK    2  A    between atoms: C_5  and  C_7
REMARK    3  A    between atoms: O_6  and  C_13
REMARK    4  A    between atoms: C_7  and  O_15
REMARK    5  A    between atoms: C_13  and  O_15
REMARK                            x       y       z     vdW  Elec       q    Type
REMARK                         _______ _______ _______ _____ _____    ______ ____
ROOT
ATOM     13  C   UNL     1      -0.763  -0.849   2.637  0.00  0.00    +0.148 C 
ATOM     38  H   UNL     1       0.000   0.000   0.000  0.00  0.00    +0.087 HD
ATOM     39  H   UNL     1       0.000   0.000   0.000  0.00  0.00    +0.087 HD
ENDROOT
BRANCH  13   6
ATOM      6  O   UNL     1       0.366  -1.330   3.429  0.00  0.00    -0.351 OA
BRANCH   6   2
ATOM      2  C   UNL     1       0.026  -1.835   4.675  0.00  0.00    +0.062 C 
ATOM      3  C   UNL     1       0.684  -2.861   6.789  0.00  0.00    -0.019 C 
ATOM      4  C   UNL     1       1.034  -2.331   5.536  0.00  0.00    -0.024 C 
ATOM      9  C   UNL     1      -1.678  -2.377   6.351  0.00  0.00    -0.019 C 
ATOM     12  C   UNL     1      -1.332  -1.850   5.093  0.00  0.00    -0.024 C 
ATOM     14  C   UNL     1      -0.673  -2.870   7.218  0.00  0.00    +0.101 C 
ATOM     17  F   UNL     1      -1.022  -3.362   8.426  0.00  0.00    -0.246 F 
ATOM     21  H   UNL     1       0.000   0.000   0.000  0.00  0.00    +0.060 HD
ATOM     22  H   UNL     1       0.000   0.000   0.000  0.00  0.00    +0.029 HD
ATOM     23  H   UNL     1       0.000   0.000   0.000  0.00  0.00    +0.029 HD
ATOM     24  H   UNL     1       0.000   0.000   0.000  0.00  0.00    +0.029 HD
ATOM     25  H   UNL     1       0.000   0.000   0.000  0.00  0.00    +0.029 HD
ATOM     31  H   UNL     1       0.000   0.000   0.000  0.00  0.00    +0.029 HD
ATOM     32  H   UNL     1       0.000   0.000   0.000  0.00  0.00    +0.029 HD
ATOM     36  H   UNL     1       0.000   0.000   0.000  0.00  0.00    +0.029 HD
ATOM     37  H   UNL     1       0.000   0.000   0.000  0.00  0.00    +0.029 HD
ATOM     40  H   UNL     1       0.000   0.000   0.000  0.00  0.00    +0.065 HD
ENDBRANCH   6   2
ENDBRANCH  13   6
BRANCH  13  15
ATOM     15  O   UNL     1      -0.337  -0.631   1.282  0.00  0.00    -0.354 OA
BRANCH  15   7
ATOM      7  C   UNL     1      -1.304   0.130   0.545  0.00  0.00    +0.053 C 
ATOM     27  H   UNL     1       0.000   0.000   0.000  0.00  0.00    +0.056 HD
ATOM     28  H   UNL     1       0.000   0.000   0.000  0.00  0.00    +0.056 HD
BRANCH   7   5
ATOM      1  C   UNL     1      -0.478   1.643  -2.868  0.00  0.00    -0.021 C 
ATOM      5  C   UNL     1      -0.970   0.244  -0.925  0.00  0.00    -0.017 C 
ATOM      8  C   UNL     1      -0.637  -0.794  -3.135  0.00  0.00    -0.021 C 
ATOM     10  C   UNL     1      -0.459   0.476  -3.762  0.00  0.00    +0.101 C 
ATOM     11  C   UNL     1      -0.893  -0.895  -1.762  0.00  0.00    -0.046 C 
ATOM     16  F   UNL     1      -0.250   0.420  -5.118  0.00  0.00    -0.246 F 
ATOM     18  C   UNL     1      -0.732   1.517  -1.477  0.00  0.00    -0.046 C 
ATOM     19  H   UNL     1       0.000   0.000   0.000  0.00  0.00    +0.029 HD
ATOM     20  H   UNL     1       0.000   0.000   0.000  0.00  0.00    +0.029 HD
ATOM     26  H   UNL     1       0.000   0.000   0.000  0.00  0.00    +0.032 HD
ATOM     29  H   UNL     1       0.000   0.000   0.000  0.00  0.00    +0.029 HD
ATOM     30  H   UNL     1       0.000   0.000   0.000  0.00  0.00    +0.029 HD
ATOM     33  H   UNL     1       0.000   0.000   0.000  0.00  0.00    +0.065 HD
ATOM     34  H   UNL     1       0.000   0.000   0.000  0.00  0.00    +0.027 HD
ATOM     35  H   UNL     1       0.000   0.000   0.000  0.00  0.00    +0.027 HD
ATOM     41  H   UNL     1       0.000   0.000   0.000  0.00  0.00    +0.027 HD
ATOM     42  H   UNL     1       0.000   0.000   0.000  0.00  0.00    +0.027 HD
ENDBRANCH   7   5
ENDBRANCH  15   7
ENDBRANCH  13  15
TORSDOF 5
