REMARK  Name = 
REMARK  2 active torsions:
REMARK  status: ('A' for Active; 'I' for Inactive)
REMARK    1  A    between atoms: C_7  and  N_9
REMARK    2  A    between atoms: C_8  and  C_11
REMARK                            x       y       z     vdW  Elec       q    Type
REMARK                         _______ _______ _______ _____ _____    ______ ____
ROOT
ATOM      8  C   UNL     1      -2.006   4.399   4.673  0.00  0.00    +0.216 C 
ATOM      9  N   UNL     1      -2.300   5.660   4.126  0.00  0.00    -0.312 N 
ATOM     10  O   UNL     1      -2.142   4.055   5.849  0.00  0.00    -0.276 OA
ATOM     27  H   UNL     1       0.000   0.000   0.000  0.00  0.00    +0.149 HD
ENDROOT
BRANCH   8  11
ATOM      1  C   UNL     1      -2.160   1.433   2.072  0.00  0.00    -0.052 C 
ATOM      3  C   UNL     1       0.167   2.680   1.898  0.00  0.00    -0.052 C 
ATOM      4  C   UNL     1      -0.782   1.558   1.407  0.00  0.00    -0.053 C 
ATOM     11  C   UNL     1      -1.556   3.430   3.628  0.00  0.00    +0.036 C 
ATOM     14  C   UNL     1      -0.168   3.544   3.088  0.00  0.00    -0.042 C 
ATOM     15  C   UNL     1      -2.501   2.354   3.277  0.00  0.00    -0.042 C 
ATOM     17  H   UNL     1       0.000   0.000   0.000  0.00  0.00    +0.027 HD
ATOM     18  H   UNL     1       0.000   0.000   0.000  0.00  0.00    +0.027 HD
ATOM     20  H   UNL     1       0.000   0.000   0.000  0.00  0.00    +0.027 HD
ATOM     21  H   UNL     1       0.000   0.000   0.000  0.00  0.00    +0.027 HD
ATOM     22  H   UNL     1       0.000   0.000   0.000  0.00  0.00    +0.027 HD
ATOM     23  H   UNL     1       0.000   0.000   0.000  0.00  0.00    +0.027 HD
ATOM     28  H   UNL     1       0.000   0.000   0.000  0.00  0.00    +0.039 HD
ATOM     33  H   UNL     1       0.000   0.000   0.000  0.00  0.00    +0.027 HD
ATOM     34  H   UNL     1       0.000   0.000   0.000  0.00  0.00    +0.027 HD
ATOM     35  H   UNL     1       0.000   0.000   0.000  0.00  0.00    +0.027 HD
ATOM     36  H   UNL     1       0.000   0.000   0.000  0.00  0.00    +0.027 HD
ENDBRANCH   8  11
BRANCH   9   7
ATOM      2  C   UNL     1      -3.794   8.936   6.657  0.00  0.00    +0.101 C 
ATOM      5  F   UNL     1      -4.309   9.860   7.433  0.00  0.00    -0.246 F 
ATOM      6  C   UNL     1      -3.479   7.825   4.290  0.00  0.00    -0.032 C 
ATOM      7  C   UNL     1      -2.757   6.700   4.929  0.00  0.00    +0.023 C 
ATOM     12  C   UNL     1      -4.020   8.956   5.183  0.00  0.00    -0.020 C 
ATOM     13  C   UNL     1      -3.132   7.751   7.250  0.00  0.00    -0.020 C 
ATOM     16  C   UNL     1      -2.564   6.648   6.332  0.00  0.00    -0.032 C 
ATOM     19  H   UNL     1       0.000   0.000   0.000  0.00  0.00    +0.065 HD
ATOM     24  H   UNL     1       0.000   0.000   0.000  0.00  0.00    +0.028 HD
ATOM     25  H   UNL     1       0.000   0.000   0.000  0.00  0.00    +0.028 HD
ATOM     26  H   UNL     1       0.000   0.000   0.000  0.00  0.00    +0.050 HD
ATOM     29  H   UNL     1       0.000   0.000   0.000  0.00  0.00    +0.029 HD
ATOM     30  H   UNL     1       0.000   0.000   0.000  0.00  0.00    +0.029 HD
ATOM     31  H   UNL     1       0.000   0.000   0.000  0.00  0.00    +0.029 HD
ATOM     32  H   UNL     1       0.000   0.000   0.000  0.00  0.00    +0.029 HD
ATOM     37  H   UNL     1       0.000   0.000   0.000  0.00  0.00    +0.028 HD
ATOM     38  H   UNL     1       0.000   0.000   0.000  0.00  0.00    +0.028 HD
ENDBRANCH   9   7
TORSDOF 2
