REMARK  Name = 
REMARK  5 active torsions:
REMARK  status: ('A' for Active; 'I' for Inactive)
REMARK    1  A    between atoms: C_1  and  C_2
REMARK    2  A    between atoms: C_1  and  N_4
REMARK    3  A    between atoms: N_4  and  C_17
REMARK    4  A    between atoms: C_9  and  C_13
REMARK    5  A    between atoms: C_9  and  C_20
REMARK                            x       y       z     vdW  Elec       q    Type
REMARK                         _______ _______ _______ _____ _____    ______ ____
ROOT
ATOM      2  C   UNL     1       0.847   1.181   0.630  0.00  0.00    +0.233 C 
ATOM      3  N   UNL     1       0.388   0.033   0.096  0.00  0.00    -0.255 N 
ATOM      5  O   UNL     1       0.087  -2.188  -0.287  0.00  0.00    -0.275 OA
ATOM     13  C   UNL     1       0.067  -1.034  -0.705  0.00  0.00    +0.219 C 
ATOM     19  O   UNL     1       0.924   2.215  -0.022  0.00  0.00    -0.274 OA
ATOM     23  H   UNL     1       0.000   0.000   0.000  0.00  0.00    +0.158 HD
ENDROOT
BRANCH   2   1
ATOM      1  C   UNL     1       1.236   0.926   2.087  0.00  0.00    +0.074 C 
ATOM     21  H   UNL     1       0.000   0.000   0.000  0.00  0.00    +0.052 HD
ATOM     22  H   UNL     1       0.000   0.000   0.000  0.00  0.00    +0.052 HD
BRANCH   1   4
ATOM      4  N   UNL     1       0.992   2.135   2.882  0.00  0.00    -0.305 NA
ATOM     24  H   UNL     1       0.000   0.000   0.000  0.00  0.00    +0.123 HD
BRANCH   4  17
ATOM      6  C   UNL     1       3.288   2.784   3.492  0.00  0.00    -0.038 C 
ATOM      7  C   UNL     1       1.526   2.953   5.170  0.00  0.00    -0.038 C 
ATOM     14  C   UNL     1       3.975   3.174   4.791  0.00  0.00    -0.052 C 
ATOM     16  C   UNL     1       2.838   3.462   5.792  0.00  0.00    -0.052 C 
ATOM     17  C   UNL     1       1.972   2.112   3.977  0.00  0.00    +0.008 C 
ATOM     25  H   UNL     1       0.000   0.000   0.000  0.00  0.00    +0.028 HD
ATOM     26  H   UNL     1       0.000   0.000   0.000  0.00  0.00    +0.028 HD
ATOM     27  H   UNL     1       0.000   0.000   0.000  0.00  0.00    +0.028 HD
ATOM     28  H   UNL     1       0.000   0.000   0.000  0.00  0.00    +0.028 HD
ATOM     38  H   UNL     1       0.000   0.000   0.000  0.00  0.00    +0.027 HD
ATOM     39  H   UNL     1       0.000   0.000   0.000  0.00  0.00    +0.027 HD
ATOM     42  H   UNL     1       0.000   0.000   0.000  0.00  0.00    +0.027 HD
ATOM     43  H   UNL     1       0.000   0.000   0.000  0.00  0.00    +0.027 HD
ATOM     44  H   UNL     1       0.000   0.000   0.000  0.00  0.00    +0.046 HD
ENDBRANCH   4  17
ENDBRANCH   1   4
ENDBRANCH   2   1
BRANCH  13   9
ATOM      9  C   UNL     1      -0.267  -0.564  -2.123  0.00  0.00    +0.027 C 
ATOM     31  H   UNL     1       0.000   0.000   0.000  0.00  0.00    +0.036 HD
ATOM     32  H   UNL     1       0.000   0.000   0.000  0.00  0.00    +0.036 HD
BRANCH   9  20
ATOM      8  C   UNL     1      -2.509  -1.730  -2.177  0.00  0.00    -0.048 C 
ATOM     10  C   UNL     1      -3.213  -2.990  -4.145  0.00  0.00    +0.034 C 
ATOM     11  C   UNL     1      -1.964  -2.723  -4.759  0.00  0.00    -0.036 C 
ATOM     12  C   UNL     1      -3.471  -2.499  -2.838  0.00  0.00    -0.036 C 
ATOM     15  C   UNL     1      -0.998  -1.951  -4.088  0.00  0.00    -0.048 C 
ATOM     18 CL   UNL     1      -4.446  -3.856  -4.961  0.00  0.00    -0.122 Cl
ATOM     20  C   UNL     1      -1.273  -1.438  -2.812  0.00  0.00    -0.033 C 
ATOM     29  H   UNL     1       0.000   0.000   0.000  0.00  0.00    +0.027 HD
ATOM     30  H   UNL     1       0.000   0.000   0.000  0.00  0.00    +0.027 HD
ATOM     33  H   UNL     1       0.000   0.000   0.000  0.00  0.00    +0.047 HD
ATOM     34  H   UNL     1       0.000   0.000   0.000  0.00  0.00    +0.028 HD
ATOM     35  H   UNL     1       0.000   0.000   0.000  0.00  0.00    +0.028 HD
ATOM     36  H   UNL     1       0.000   0.000   0.000  0.00  0.00    +0.028 HD
ATOM     37  H   UNL     1       0.000   0.000   0.000  0.00  0.00    +0.028 HD
ATOM     40  H   UNL     1       0.000   0.000   0.000  0.00  0.00    +0.027 HD
ATOM     41  H   UNL     1       0.000   0.000   0.000  0.00  0.00    +0.027 HD
ATOM     45  H   UNL     1       0.000   0.000   0.000  0.00  0.00    +0.031 HD
ENDBRANCH   9  20
ENDBRANCH  13   9
TORSDOF 5
