REMARK  Name = 
REMARK  4 active torsions:
REMARK  status: ('A' for Active; 'I' for Inactive)
REMARK    1  A    between atoms: C_2  and  C_10
REMARK    2  A    between atoms: C_3  and  O_6
REMARK    3  A    between atoms: O_6  and  O_9
REMARK    4  A    between atoms: C_10  and  C_17
REMARK                            x       y       z     vdW  Elec       q    Type
REMARK                         _______ _______ _______ _____ _____    ______ ____
ROOT
ATOM     10  C   UNL     1       0.619  -0.310   0.352  0.00  0.00    +0.180 C 
ATOM     13  O   UNL     1       1.722  -0.164   0.902  0.00  0.00    -0.291 OA
ENDROOT
BRANCH  10   2
ATOM      1  C   UNL     1       1.085  -2.285  -1.117  0.00  0.00    -0.007 C 
ATOM      2  C   UNL     1       0.305  -1.813   0.121  0.00  0.00    +0.078 C 
ATOM      4  C   UNL     1       2.191  -3.330  -0.849  0.00  0.00    -0.047 C 
ATOM      7  C   UNL     1       1.818  -4.707  -0.243  0.00  0.00    -0.051 C 
ATOM      8  C   UNL     1      -0.189  -3.965   1.129  0.00  0.00    +0.040 C 
ATOM     11  N   UNL     1      -0.320  -2.503   1.032  0.00  0.00    -0.285 NA
ATOM     14  C   UNL     1       1.212  -4.597   1.186  0.00  0.00    -0.033 C 
ATOM     18  H   UNL     1       0.000   0.000   0.000  0.00  0.00    +0.033 HD
ATOM     19  H   UNL     1       0.000   0.000   0.000  0.00  0.00    +0.033 HD
ATOM     21  H   UNL     1       0.000   0.000   0.000  0.00  0.00    +0.027 HD
ATOM     22  H   UNL     1       0.000   0.000   0.000  0.00  0.00    +0.027 HD
ATOM     25  H   UNL     1       0.000   0.000   0.000  0.00  0.00    +0.027 HD
ATOM     26  H   UNL     1       0.000   0.000   0.000  0.00  0.00    +0.027 HD
ATOM     27  H   UNL     1       0.000   0.000   0.000  0.00  0.00    +0.051 HD
ATOM     28  H   UNL     1       0.000   0.000   0.000  0.00  0.00    +0.051 HD
ATOM     32  H   UNL     1       0.000   0.000   0.000  0.00  0.00    +0.028 HD
ATOM     33  H   UNL     1       0.000   0.000   0.000  0.00  0.00    +0.028 HD
ENDBRANCH  10   2
BRANCH  10  17
ATOM      3  C   UNL     1      -1.502   3.461  -0.465  0.00  0.00    +0.094 C 
ATOM      5  C   UNL     1       0.577   2.188  -0.107  0.00  0.00    -0.041 C 
ATOM     12  C   UNL     1      -0.091   3.419  -0.332  0.00  0.00    -0.023 C 
ATOM     15  C   UNL     1      -1.568   1.019  -0.113  0.00  0.00    -0.041 C 
ATOM     16  C   UNL     1      -2.242   2.237  -0.369  0.00  0.00    -0.023 C 
ATOM     17  C   UNL     1      -0.160   1.006   0.015  0.00  0.00    +0.023 C 
ATOM     20  H   UNL     1       0.000   0.000   0.000  0.00  0.00    +0.063 HD
ATOM     23  H   UNL     1       0.000   0.000   0.000  0.00  0.00    +0.027 HD
ATOM     24  H   UNL     1       0.000   0.000   0.000  0.00  0.00    +0.027 HD
ATOM     30  H   UNL     1       0.000   0.000   0.000  0.00  0.00    +0.029 HD
ATOM     31  H   UNL     1       0.000   0.000   0.000  0.00  0.00    +0.029 HD
ATOM     34  H   UNL     1       0.000   0.000   0.000  0.00  0.00    +0.027 HD
ATOM     35  H   UNL     1       0.000   0.000   0.000  0.00  0.00    +0.027 HD
ATOM     36  H   UNL     1       0.000   0.000   0.000  0.00  0.00    +0.029 HD
ATOM     37  H   UNL     1       0.000   0.000   0.000  0.00  0.00    +0.029 HD
ATOM     38  H   UNL     1       0.000   0.000   0.000  0.00  0.00    +0.038 HD
BRANCH   3   6
ATOM      6  O   UNL     1      -2.162   4.628  -0.688  0.00  0.00    -0.234 OA
BRANCH   6   9
ATOM      9  O   UNL     1      -1.293   5.717  -0.456  0.00  0.00    -0.250 OA
ATOM     29  H   UNL     1       0.000   0.000   0.000  0.00  0.00    +0.253 HD
ENDBRANCH   6   9
ENDBRANCH   3   6
ENDBRANCH  10  17
TORSDOF 4
