REMARK  Name = 
REMARK  4 active torsions:
REMARK  status: ('A' for Active; 'I' for Inactive)
REMARK    1  A    between atoms: C_7  and  C_15
REMARK    2  A    between atoms: C_7  and  C_16
REMARK    3  A    between atoms: C_10  and  C_11
REMARK    4  A    between atoms: C_13  and  C_16
REMARK                            x       y       z     vdW  Elec       q    Type
REMARK                         _______ _______ _______ _____ _____    ______ ____
ROOT
ATOM      2  O   UNL     1      -0.661   1.314  -0.099  0.00  0.00    -0.424 OA
ATOM      4  N   UNL     1      -0.276  -0.267   1.496  0.00  0.00    -0.112 NA
ATOM     10  C   UNL     1      -1.545   1.429   0.950  0.00  0.00    +0.220 A 
ATOM     13  C   UNL     1       0.176   0.237   0.356  0.00  0.00    +0.224 A 
ATOM     18  N   UNL     1      -1.377   0.522   1.904  0.00  0.00    -0.112 NA
ENDROOT
BRANCH  10  11
ATOM      5  C   UNL     1      -3.809   3.998   2.511  0.00  0.00    -0.052 C 
ATOM      8  C   UNL     1      -4.244   3.974   0.114  0.00  0.00    -0.052 C 
ATOM     11  C   UNL     1      -2.537   2.498   1.053  0.00  0.00    +0.037 C 
ATOM     12  C   UNL     1      -4.533   4.465   1.400  0.00  0.00    -0.053 C 
ATOM     19  C   UNL     1      -3.252   2.996  -0.057  0.00  0.00    -0.042 C 
ATOM     20  C   UNL     1      -2.796   3.019   2.340  0.00  0.00    -0.042 C 
ATOM     23  H   UNL     1       0.000   0.000   0.000  0.00  0.00    +0.027 HD
ATOM     24  H   UNL     1       0.000   0.000   0.000  0.00  0.00    +0.027 HD
ATOM     27  H   UNL     1       0.000   0.000   0.000  0.00  0.00    +0.027 HD
ATOM     28  H   UNL     1       0.000   0.000   0.000  0.00  0.00    +0.027 HD
ATOM     31  H   UNL     1       0.000   0.000   0.000  0.00  0.00    +0.040 HD
ATOM     32  H   UNL     1       0.000   0.000   0.000  0.00  0.00    +0.027 HD
ATOM     33  H   UNL     1       0.000   0.000   0.000  0.00  0.00    +0.027 HD
ATOM     41  H   UNL     1       0.000   0.000   0.000  0.00  0.00    +0.027 HD
ATOM     42  H   UNL     1       0.000   0.000   0.000  0.00  0.00    +0.027 HD
ATOM     43  H   UNL     1       0.000   0.000   0.000  0.00  0.00    +0.027 HD
ATOM     44  H   UNL     1       0.000   0.000   0.000  0.00  0.00    +0.027 HD
ENDBRANCH  10  11
BRANCH  13  16
ATOM     16  C   UNL     1       1.541  -0.333  -0.188  0.00  0.00    +0.084 C 
ATOM     37  H   UNL     1       0.000   0.000   0.000  0.00  0.00    +0.044 HD
ATOM     38  H   UNL     1       0.000   0.000   0.000  0.00  0.00    +0.044 HD
BRANCH  16   7
ATOM      1  O   UNL     1       1.052  -1.034  -2.470  0.00  0.00    -0.297 OA
ATOM      7  C   UNL     1       1.736  -1.206  -1.442  0.00  0.00    +0.145 C 
BRANCH   7  15
ATOM      3  C   UNL     1       3.281  -2.757  -0.089  0.00  0.00    -0.044 C 
ATOM      6  C   UNL     1       4.088  -4.055  -0.031  0.00  0.00    -0.052 C 
ATOM      9  C   UNL     1       4.375  -4.756  -1.375  0.00  0.00    -0.053 C 
ATOM     14  C   UNL     1       2.689  -3.206  -2.565  0.00  0.00    -0.044 C 
ATOM     15  C   UNL     1       2.899  -2.189  -1.442  0.00  0.00    +0.018 C 
ATOM     17  C   UNL     1       3.192  -4.650  -2.366  0.00  0.00    -0.052 C 
ATOM     21  H   UNL     1       0.000   0.000   0.000  0.00  0.00    +0.027 HD
ATOM     22  H   UNL     1       0.000   0.000   0.000  0.00  0.00    +0.027 HD
ATOM     25  H   UNL     1       0.000   0.000   0.000  0.00  0.00    +0.027 HD
ATOM     26  H   UNL     1       0.000   0.000   0.000  0.00  0.00    +0.027 HD
ATOM     29  H   UNL     1       0.000   0.000   0.000  0.00  0.00    +0.027 HD
ATOM     30  H   UNL     1       0.000   0.000   0.000  0.00  0.00    +0.027 HD
ATOM     34  H   UNL     1       0.000   0.000   0.000  0.00  0.00    +0.027 HD
ATOM     35  H   UNL     1       0.000   0.000   0.000  0.00  0.00    +0.027 HD
ATOM     36  H   UNL     1       0.000   0.000   0.000  0.00  0.00    +0.038 HD
ATOM     39  H   UNL     1       0.000   0.000   0.000  0.00  0.00    +0.027 HD
ATOM     40  H   UNL     1       0.000   0.000   0.000  0.00  0.00    +0.027 HD
ENDBRANCH   7  15
ENDBRANCH  16   7
ENDBRANCH  13  16
TORSDOF 4
