REMARK  Name = 
REMARK  2 active torsions:
REMARK  status: ('A' for Active; 'I' for Inactive)
REMARK    1  A    between atoms: C_6  and  C_8
REMARK    2  A    between atoms: N_7  and  C_12
REMARK                            x       y       z     vdW  Elec       q    Type
REMARK                         _______ _______ _______ _____ _____    ______ ____
ROOT
ATOM      2  O   UNL     1       1.554   1.160  -0.306  0.00  0.00    -0.276 OA
ATOM      7  N   UNL     1      -0.722   0.696   0.102  0.00  0.00    -0.312 N 
ATOM      8  C   UNL     1       0.595   0.395  -0.380  0.00  0.00    +0.216 C 
ATOM     24  H   UNL     1       0.000   0.000   0.000  0.00  0.00    +0.149 HD
ENDROOT
BRANCH   8   6
ATOM      1  F   UNL     1       1.115  -4.731  -2.635  0.00  0.00    -0.246 F 
ATOM      5  C   UNL     1       1.829  -1.744  -0.633  0.00  0.00    -0.039 C 
ATOM      6  C   UNL     1       0.737  -0.941  -0.986  0.00  0.00    +0.036 C 
ATOM     10  C   UNL     1       1.964  -3.034  -1.196  0.00  0.00    -0.021 C 
ATOM     11  C   UNL     1      -0.229  -1.410  -1.914  0.00  0.00    -0.039 C 
ATOM     14  C   UNL     1       0.998  -3.514  -2.116  0.00  0.00    +0.101 C 
ATOM     15  C   UNL     1      -0.097  -2.691  -2.480  0.00  0.00    -0.021 C 
ATOM     21  H   UNL     1       0.000   0.000   0.000  0.00  0.00    +0.027 HD
ATOM     22  H   UNL     1       0.000   0.000   0.000  0.00  0.00    +0.027 HD
ATOM     23  H   UNL     1       0.000   0.000   0.000  0.00  0.00    +0.039 HD
ATOM     27  H   UNL     1       0.000   0.000   0.000  0.00  0.00    +0.029 HD
ATOM     28  H   UNL     1       0.000   0.000   0.000  0.00  0.00    +0.029 HD
ATOM     29  H   UNL     1       0.000   0.000   0.000  0.00  0.00    +0.027 HD
ATOM     30  H   UNL     1       0.000   0.000   0.000  0.00  0.00    +0.027 HD
ATOM     34  H   UNL     1       0.000   0.000   0.000  0.00  0.00    +0.065 HD
ATOM     35  H   UNL     1       0.000   0.000   0.000  0.00  0.00    +0.029 HD
ATOM     36  H   UNL     1       0.000   0.000   0.000  0.00  0.00    +0.029 HD
ENDBRANCH   8   6
BRANCH   7  12
ATOM      3  C   UNL     1      -1.567   3.546   3.132  0.00  0.00    -0.053 C 
ATOM      4  C   UNL     1       0.045   2.364   1.726  0.00  0.00    -0.035 C 
ATOM      9  C   UNL     1      -2.625   2.920   2.433  0.00  0.00    -0.051 C 
ATOM     12  C   UNL     1      -1.013   1.701   1.072  0.00  0.00    +0.023 C 
ATOM     13  C   UNL     1      -2.350   2.001   1.404  0.00  0.00    -0.035 C 
ATOM     16  C   UNL     1      -0.235   3.282   2.778  0.00  0.00    -0.051 C 
ATOM     17  H   UNL     1       0.000   0.000   0.000  0.00  0.00    +0.027 HD
ATOM     18  H   UNL     1       0.000   0.000   0.000  0.00  0.00    +0.027 HD
ATOM     19  H   UNL     1       0.000   0.000   0.000  0.00  0.00    +0.028 HD
ATOM     20  H   UNL     1       0.000   0.000   0.000  0.00  0.00    +0.028 HD
ATOM     25  H   UNL     1       0.000   0.000   0.000  0.00  0.00    +0.027 HD
ATOM     26  H   UNL     1       0.000   0.000   0.000  0.00  0.00    +0.027 HD
ATOM     31  H   UNL     1       0.000   0.000   0.000  0.00  0.00    +0.050 HD
ATOM     32  H   UNL     1       0.000   0.000   0.000  0.00  0.00    +0.028 HD
ATOM     33  H   UNL     1       0.000   0.000   0.000  0.00  0.00    +0.028 HD
ATOM     37  H   UNL     1       0.000   0.000   0.000  0.00  0.00    +0.027 HD
ATOM     38  H   UNL     1       0.000   0.000   0.000  0.00  0.00    +0.027 HD
ENDBRANCH   7  12
TORSDOF 2
